1

   Abaqus 6.14-1                                  Date 02-Sep-2021   Time 11:42:38
   For use at UNIVERSITY OF CAPE TOWN under license from Dassault Systemes or its subsidiary.

                                                                                 
                                                                                 
 STEP    1     INCREMENT     1     STEP TIME    0.00    


                        S T E P       1     S T A T I C   A N A L Y S I S


                                                                                          

     AUTOMATIC TIME CONTROL WITH -
          A SUGGESTED INITIAL TIME INCREMENT OF                 5.00    
          AND A TOTAL TIME PERIOD OF                            5.00    
          THE MINIMUM TIME INCREMENT ALLOWED IS                5.000E-05
          THE MAXIMUM TIME INCREMENT ALLOWED IS                 5.00    

     LINEAR EQUATION SOLVER TYPE         DIRECT SPARSE

 CONVERGENCE TOLERANCE PARAMETERS FOR FORCE    
     CRITERION FOR RESIDUAL FORCE     FOR A NONLINEAR PROBLEM          5.000E-03
     CRITERION FOR DISP.    CORRECTION IN A NONLINEAR PROBLEM          1.000E-02
     INITIAL VALUE OF TIME AVERAGE FORCE                               1.000E-02
     AVERAGE FORCE     IS TIME AVERAGE FORCE    
     ALTERNATE CRIT. FOR RESIDUAL FORCE     FOR A NONLINEAR PROBLEM    2.000E-02
     CRITERION FOR ZERO FORCE     RELATIVE TO TIME AVRG. FORCE         1.000E-05
     CRITERION FOR RESIDUAL FORCE     WHEN THERE IS ZERO FLUX          1.000E-05
     CRITERION FOR DISP.    CORRECTION WHEN THERE IS ZERO FLUX         1.000E-03
     CRITERION FOR RESIDUAL FORCE     FOR A LINEAR INCREMENT           1.000E-08
     FIELD CONVERSION RATIO                                             1.00    
     CRITERION FOR ZERO FORCE     REL. TO TIME AVRG. MAX. FORCE        1.000E-05
     CRITERION FOR ZERO DISP.    RELATIVE TO CHARACTERISTIC LENGTH     1.000E-08

     VOLUMETRIC STRAIN COMPATIBILITY TOLERANCE FOR HYBRID SOLIDS       1.000E-05
     AXIAL STRAIN COMPATIBILITY TOLERANCE FOR HYBRID BEAMS             1.000E-05
     TRANS. SHEAR STRAIN COMPATIBILITY TOLERANCE FOR HYBRID BEAMS      1.000E-05
     SOFT CONTACT CONSTRAINT COMPATIBILITY TOLERANCE FOR P>P0          5.000E-03
     SOFT CONTACT CONSTRAINT COMPATIBILITY TOLERANCE FOR P=0.0         0.100    
     CONTACT FORCE ERROR TOLERANCE FOR CONVERT SDI=YES                 1.00    
     DISPLACEMENT COMPATIBILITY TOLERANCE FOR DCOUP ELEMENTS           1.000E-05
     ROTATION COMPATIBILITY TOLERANCE FOR DCOUP ELEMENTS               1.000E-05

 EQUILIBRIUM WILL BE CHECKED FOR SEVERE DISCONTINUITY ITERATIONS

 TIME INCREMENTATION CONTROL PARAMETERS:
     FIRST EQUILIBRIUM ITERATION FOR CONSECUTIVE DIVERGENCE CHECK              4
     EQUILIBRIUM ITERATION AT WHICH LOG. CONVERGENCE RATE CHECK BEGINS         8
     EQUILIBRIUM ITERATION AFTER WHICH ALTERNATE RESIDUAL IS USED              9
     MAXIMUM EQUILIBRIUM ITERATIONS ALLOWED                                   16
     EQUILIBRIUM ITERATION COUNT FOR CUT-BACK IN NEXT INCREMENT               10
     MAXIMUM EQUILIB. ITERS IN TWO INCREMENTS FOR TIME INCREMENT INCREASE      4
     MAXIMUM ITERATIONS FOR SEVERE DISCONTINUITIES                            50
     MAXIMUM CUT-BACKS ALLOWED IN AN INCREMENT                                 5
     MAXIMUM DISCON. ITERS IN TWO INCREMENTS FOR TIME INCREMENT INCREASE      50
     MAXIMUM CONTACT AUGMENTATIONS FOR *SURFACE BEHAVIOR,AUGMENTED LAGRANGE   50
     CUT-BACK FACTOR AFTER DIVERGENCE                                 0.2500    
     CUT-BACK FACTOR FOR TOO SLOW CONVERGENCE                         0.5000    
     CUT-BACK FACTOR AFTER TOO MANY EQUILIBRIUM ITERATIONS            0.7500    
     CUT-BACK FACTOR AFTER TOO MANY SEVERE DISCONTINUITY ITERATIONS   0.2500    
     CUT-BACK FACTOR AFTER PROBLEMS IN ELEMENT ASSEMBLY               0.2500    
     INCREASE FACTOR AFTER TWO INCREMENTS THAT CONVERGE QUICKLY        1.500    
     MAX. TIME INCREMENT INCREASE FACTOR ALLOWED                       1.500    
     MAX. TIME INCREMENT INCREASE FACTOR ALLOWED (DYNAMICS)            1.250    
     MAX. TIME INCREMENT INCREASE FACTOR ALLOWED (DIFFUSION)           2.000    
     MINIMUM TIME INCREMENT RATIO FOR EXTRAPOLATION TO OCCUR          0.1000    
     MAX. RATIO OF TIME INCREMENT TO STABILITY LIMIT                   1.000    
     FRACTION OF STABILITY LIMIT FOR NEW TIME INCREMENT               0.9500    
     TIME INCREMENT INCREASE FACTOR BEFORE A TIME POINT                1.000    
     GLOBAL STABILIZATION CONTROL IS NOT USED

          PRINT OF INCREMENT NUMBER, TIME, ETC., EVERY    1  INCREMENTS

     THE MAXIMUM NUMBER OF INCREMENTS IN THIS STEP IS                     100

          LARGE DISPLACEMENT THEORY WILL BE USED

     LINEAR EXTRAPOLATION WILL BE USED

     CHARACTERISTIC ELEMENT LENGTH      2.87    

     DETAILS REGARDING ACTUAL SOLUTION WAVEFRONT REQUESTED

     DETAILED OUTPUT OF DIAGNOSTICS TO DATABASE REQUESTED

     PRINT OF INCREMENT NUMBER, TIME, ETC., TO THE MESSAGE FILE EVERY     1  INCREMENTS

     ELEMENT OPERATIONS WILL BE CARRIED OUT IN PARALLEL USING  10 PROCESSORS

     PARALLEL CONTACT TRACKING ENABLED


     COLLECTING MODEL CONSTRAINT INFORMATION FOR OVERCONSTRAINT CHECKS

     COLLECTING STEP CONSTRAINT INFORMATION FOR OVERCONSTRAINT CHECKS
  
     ASYNCHRONOUS OUTPUT DATABASE FRAME FLUSH STARTED
  


  INCREMENT     1 STARTS. ATTEMPT NUMBER  1, TIME INCREMENT   5.00    
 
     INITIAL ELEMENT LOAD BALANCE
        COMPUTE NODE   1   PROCESS    NUMBER OF ELEMENTS
                              1            207
                              2            207
                              3            207
                              4            207
                              5            212
                              6            207
                              7            207
                              8            207
                              9            207
                             10            207

  NUMBER OF EQUATIONS =    10911     NUMBER OF FLOATING PT. OPERATIONS =  9.38E+08

  USING THE DIRECT SOLVER WITH  10 PROCESSORS

     CHECK POINT   START OF SOLVER    

     CHECK POINT  END OF SOLVER       

       ELAPSED USER TIME (SEC)      =  0.39000    
       ELAPSED SYSTEM TIME (SEC)    =  4.00000E-02
       ELAPSED TOTAL CPU TIME (SEC) =  0.43000    
       ELAPSED WALLCLOCK TIME (SEC) =          1

               CONVERGENCE CHECKS FOR EQUILIBRIUM ITERATION     1


 AVERAGE FORCE                      0.626       TIME AVG. FORCE       0.626    
 LARGEST RESIDUAL FORCE             -8.93       AT NODE       3405   DOF  3
   INSTANCE: BULDGE-SPECIMEN-1                                                               
 LARGEST INCREMENT OF DISP.         -1.00       AT NODE          1   DOF  3
   INSTANCE: BULDGE-SPECIMEN-1                                                               
 LARGEST CORRECTION TO DISP.        -1.00       AT NODE          1   DOF  3
   INSTANCE: BULDGE-SPECIMEN-1                                                               
          FORCE     EQUILIBRIUM NOT ACHIEVED WITHIN TOLERANCE.

  NUMBER OF EQUATIONS =    10911     NUMBER OF FLOATING PT. OPERATIONS =  9.38E+08

  USING THE DIRECT SOLVER WITH  10 PROCESSORS

     CHECK POINT   START OF SOLVER    

     CHECK POINT  END OF SOLVER       

       ELAPSED USER TIME (SEC)      =  0.35000    
       ELAPSED SYSTEM TIME (SEC)    =  3.00000E-02
       ELAPSED TOTAL CPU TIME (SEC) =  0.38000    
       ELAPSED WALLCLOCK TIME (SEC) =          0
 

 ***WARNING: THE SYSTEM MATRIX HAS 1 NEGATIVE EIGENVALUES.

     NEGATIVE EIGENVALUES MEAN THAT THE SYSTEM MATRIX IS NOT 
     POSITIVE DEFINITE:
     FOR EXAMPLE, A BIFURCATION (BUCKLING) LOAD MAY HAVE BEEN EXCEEDED.
   ELEMENT BULDGE-SPECIMEN-1.1886 IS DISTORTING EXCESSIVELY.
   ELEMENT BULDGE-SPECIMEN-1.1886 IS DISTORTING EXCESSIVELY.
   ELEMENT BULDGE-SPECIMEN-1.1887 IS DISTORTING EXCESSIVELY.
   ELEMENT BULDGE-SPECIMEN-1.1893 IS DISTORTING EXCESSIVELY.

 ***WARNING: EXCESSIVE DISTORTION AT A TOTAL OF 4 INTEGRATION POINTS IN SOLID 
             (CONTINUUM) ELEMENTS
 

 ***NOTE: ELEMENTS ARE DISTORTING EXCESSIVELY. CONVERGENCE IS JUDGED UNLIKELY.


  INCREMENT     1 STARTS. ATTEMPT NUMBER  2, TIME INCREMENT   1.25    
 
     INITIAL ELEMENT LOAD BALANCE
        COMPUTE NODE   1   PROCESS    NUMBER OF ELEMENTS
                              1            212
                              2            207
                              3            207
                              4            207
                              5            207
                              6            207
                              7            207
                              8            207
                              9            207
                             10            207

  NUMBER OF EQUATIONS =    10911     NUMBER OF FLOATING PT. OPERATIONS =  9.38E+08

  USING THE DIRECT SOLVER WITH  10 PROCESSORS

     CHECK POINT   START OF SOLVER    

     CHECK POINT  END OF SOLVER       

       ELAPSED USER TIME (SEC)      =  0.30000    
       ELAPSED SYSTEM TIME (SEC)    =  3.00000E-02
       ELAPSED TOTAL CPU TIME (SEC) =  0.33000    
       ELAPSED WALLCLOCK TIME (SEC) =          0

               CONVERGENCE CHECKS FOR EQUILIBRIUM ITERATION     1


 AVERAGE FORCE                      0.113       TIME AVG. FORCE       0.113    
 LARGEST RESIDUAL FORCE            -0.516       AT NODE       3405   DOF  3
   INSTANCE: BULDGE-SPECIMEN-1                                                               
 LARGEST INCREMENT OF DISP.        -0.250       AT NODE          1   DOF  3
   INSTANCE: BULDGE-SPECIMEN-1                                                               
 LARGEST CORRECTION TO DISP.       -0.250       AT NODE          1   DOF  3
   INSTANCE: BULDGE-SPECIMEN-1                                                               
          FORCE     EQUILIBRIUM NOT ACHIEVED WITHIN TOLERANCE.

  NUMBER OF EQUATIONS =    10911     NUMBER OF FLOATING PT. OPERATIONS =  9.38E+08

  USING THE DIRECT SOLVER WITH  10 PROCESSORS

     CHECK POINT   START OF SOLVER    

     CHECK POINT  END OF SOLVER       

       ELAPSED USER TIME (SEC)      =  0.32000    
       ELAPSED SYSTEM TIME (SEC)    =  4.00000E-02
       ELAPSED TOTAL CPU TIME (SEC) =  0.36000    
       ELAPSED WALLCLOCK TIME (SEC) =          0

               CONVERGENCE CHECKS FOR EQUILIBRIUM ITERATION     2


 AVERAGE FORCE                      0.111       TIME AVG. FORCE       0.111    
 LARGEST RESIDUAL FORCE            -4.239E-03   AT NODE       3405   DOF  3
   INSTANCE: BULDGE-SPECIMEN-1                                                               
 LARGEST INCREMENT OF DISP.        -0.250       AT NODE          1   DOF  3
   INSTANCE: BULDGE-SPECIMEN-1                                                               
 LARGEST CORRECTION TO DISP.        8.740E-03   AT NODE       2163   DOF  3
   INSTANCE: BULDGE-SPECIMEN-1                                                               
          FORCE     EQUILIBRIUM NOT ACHIEVED WITHIN TOLERANCE.

  NUMBER OF EQUATIONS =    10911     NUMBER OF FLOATING PT. OPERATIONS =  9.38E+08

  USING THE DIRECT SOLVER WITH  10 PROCESSORS

     CHECK POINT   START OF SOLVER    

     CHECK POINT  END OF SOLVER       

       ELAPSED USER TIME (SEC)      =  0.33000    
       ELAPSED SYSTEM TIME (SEC)    =  1.00000E-02
       ELAPSED TOTAL CPU TIME (SEC) =  0.34000    
       ELAPSED WALLCLOCK TIME (SEC) =          0

               CONVERGENCE CHECKS FOR EQUILIBRIUM ITERATION     3


 AVERAGE FORCE                      0.111       TIME AVG. FORCE       0.111    
 LARGEST RESIDUAL FORCE            -1.695E-06   AT NODE       3405   DOF  3
   INSTANCE: BULDGE-SPECIMEN-1                                                               
 LARGEST INCREMENT OF DISP.        -0.250       AT NODE          1   DOF  3
   INSTANCE: BULDGE-SPECIMEN-1                                                               
 LARGEST CORRECTION TO DISP.        2.555E-04   AT NODE       3555   DOF  2
   INSTANCE: BULDGE-SPECIMEN-1                                                               
          THE FORCE     EQUILIBRIUM EQUATIONS HAVE CONVERGED

 ITERATION SUMMARY FOR THE INCREMENT:   3 TOTAL ITERATIONS, OF WHICH
   0 ARE SEVERE DISCONTINUITY ITERATIONS AND  3 ARE EQUILIBRIUM ITERATIONS.

 TIME INCREMENT COMPLETED   1.25    ,  FRACTION OF STEP COMPLETED  0.250    
 STEP TIME COMPLETED        1.25    ,  TOTAL TIME COMPLETED         1.25    
  
     ASYNCHRONOUS OUTPUT DATABASE FRAME FLUSH STARTED
  


  INCREMENT     2 STARTS. ATTEMPT NUMBER  1, TIME INCREMENT   1.25    

  NUMBER OF EQUATIONS =    10911     NUMBER OF FLOATING PT. OPERATIONS =  9.38E+08

  USING THE DIRECT SOLVER WITH  10 PROCESSORS

     CHECK POINT   START OF SOLVER    

     CHECK POINT  END OF SOLVER       

       ELAPSED USER TIME (SEC)      =  0.33000    
       ELAPSED SYSTEM TIME (SEC)    =  1.00000E-02
       ELAPSED TOTAL CPU TIME (SEC) =  0.34000    
       ELAPSED WALLCLOCK TIME (SEC) =          0

               CONVERGENCE CHECKS FOR EQUILIBRIUM ITERATION     1


 AVERAGE FORCE                      0.240       TIME AVG. FORCE       0.176    
 LARGEST RESIDUAL FORCE             1.904E-02   AT NODE        490   DOF  2
   INSTANCE: BULDGE-SPECIMEN-1                                                               
 LARGEST INCREMENT OF DISP.        -0.250       AT NODE          1   DOF  3
   INSTANCE: BULDGE-SPECIMEN-1                                                               
 LARGEST CORRECTION TO DISP.        2.099E-02   AT NODE       2163   DOF  3
   INSTANCE: BULDGE-SPECIMEN-1                                                               
          FORCE     EQUILIBRIUM NOT ACHIEVED WITHIN TOLERANCE.

  NUMBER OF EQUATIONS =    10911     NUMBER OF FLOATING PT. OPERATIONS =  9.38E+08

  USING THE DIRECT SOLVER WITH  10 PROCESSORS

     CHECK POINT   START OF SOLVER    

     CHECK POINT  END OF SOLVER       

       ELAPSED USER TIME (SEC)      =  0.32000    
       ELAPSED SYSTEM TIME (SEC)    =  3.00000E-02
       ELAPSED TOTAL CPU TIME (SEC) =  0.35000    
       ELAPSED WALLCLOCK TIME (SEC) =          0

               CONVERGENCE CHECKS FOR EQUILIBRIUM ITERATION     2


 AVERAGE FORCE                      0.240       TIME AVG. FORCE       0.176    
 LARGEST RESIDUAL FORCE            -1.624E-05   AT NODE       3405   DOF  3
   INSTANCE: BULDGE-SPECIMEN-1                                                               
 LARGEST INCREMENT OF DISP.        -0.250       AT NODE          1   DOF  3
   INSTANCE: BULDGE-SPECIMEN-1                                                               
 LARGEST CORRECTION TO DISP.        1.157E-03   AT NODE       3555   DOF  2
   INSTANCE: BULDGE-SPECIMEN-1                                                               
          THE FORCE     EQUILIBRIUM EQUATIONS HAVE CONVERGED
          TIME INCREMENT MAY NOW INCREASE TO     1.88    

 ITERATION SUMMARY FOR THE INCREMENT:   2 TOTAL ITERATIONS, OF WHICH
   0 ARE SEVERE DISCONTINUITY ITERATIONS AND  2 ARE EQUILIBRIUM ITERATIONS.

 TIME INCREMENT COMPLETED   1.25    ,  FRACTION OF STEP COMPLETED  0.500    
 STEP TIME COMPLETED        2.50    ,  TOTAL TIME COMPLETED         2.50    
  
     ASYNCHRONOUS OUTPUT DATABASE FRAME FLUSH STARTED
  


  INCREMENT     3 STARTS. ATTEMPT NUMBER  1, TIME INCREMENT   1.88    

  NUMBER OF EQUATIONS =    10911     NUMBER OF FLOATING PT. OPERATIONS =  9.38E+08

  USING THE DIRECT SOLVER WITH  10 PROCESSORS

     CHECK POINT   START OF SOLVER    

     CHECK POINT  END OF SOLVER       

       ELAPSED USER TIME (SEC)      =  0.30000    
       ELAPSED SYSTEM TIME (SEC)    =  3.00000E-02
       ELAPSED TOTAL CPU TIME (SEC) =  0.33000    
       ELAPSED WALLCLOCK TIME (SEC) =          0

               CONVERGENCE CHECKS FOR EQUILIBRIUM ITERATION     1


 AVERAGE FORCE                      0.466       TIME AVG. FORCE       0.272    
 LARGEST RESIDUAL FORCE            -5.930E-02   AT NODE       3095   DOF  3
   INSTANCE: BULDGE-SPECIMEN-1                                                               
 LARGEST INCREMENT OF DISP.        -0.375       AT NODE          1   DOF  3
   INSTANCE: BULDGE-SPECIMEN-1                                                               
 LARGEST CORRECTION TO DISP.        5.260E-02   AT NODE       2163   DOF  3
   INSTANCE: BULDGE-SPECIMEN-1                                                               
          FORCE     EQUILIBRIUM NOT ACHIEVED WITHIN TOLERANCE.

  NUMBER OF EQUATIONS =    10911     NUMBER OF FLOATING PT. OPERATIONS =  9.38E+08

  USING THE DIRECT SOLVER WITH  10 PROCESSORS

     CHECK POINT   START OF SOLVER    

     CHECK POINT  END OF SOLVER       

       ELAPSED USER TIME (SEC)      =  0.30000    
       ELAPSED SYSTEM TIME (SEC)    =  3.00000E-02
       ELAPSED TOTAL CPU TIME (SEC) =  0.33000    
       ELAPSED WALLCLOCK TIME (SEC) =          0

               CONVERGENCE CHECKS FOR EQUILIBRIUM ITERATION     2


 AVERAGE FORCE                      0.466       TIME AVG. FORCE       0.273    
 LARGEST RESIDUAL FORCE             5.386E-04   AT NODE       2163   DOF  3
   INSTANCE: BULDGE-SPECIMEN-1                                                               
 LARGEST INCREMENT OF DISP.        -0.375       AT NODE          1   DOF  3
   INSTANCE: BULDGE-SPECIMEN-1                                                               
 LARGEST CORRECTION TO DISP.        4.710E-03   AT NODE         55   DOF  3
   INSTANCE: BULDGE-SPECIMEN-1                                                               
 ESTIMATE OF DISP.    CORRECTION   -4.277E-05
 FORCE     EQUILIB. ACCEPTED BASED ON SMALL RESIDUAL AND ESTIMATED CORRECTION

 ITERATION SUMMARY FOR THE INCREMENT:   2 TOTAL ITERATIONS, OF WHICH
   0 ARE SEVERE DISCONTINUITY ITERATIONS AND  2 ARE EQUILIBRIUM ITERATIONS.

 TIME INCREMENT COMPLETED   1.88    ,  FRACTION OF STEP COMPLETED  0.875    
 STEP TIME COMPLETED        4.38    ,  TOTAL TIME COMPLETED         4.38    
  
     ASYNCHRONOUS OUTPUT DATABASE FRAME FLUSH STARTED
  


  INCREMENT     4 STARTS. ATTEMPT NUMBER  1, TIME INCREMENT  0.625    

  NUMBER OF EQUATIONS =    10911     NUMBER OF FLOATING PT. OPERATIONS =  9.38E+08

  USING THE DIRECT SOLVER WITH  10 PROCESSORS

     CHECK POINT   START OF SOLVER    

     CHECK POINT  END OF SOLVER       

       ELAPSED USER TIME (SEC)      =  0.31000    
       ELAPSED SYSTEM TIME (SEC)    =  3.00000E-02
       ELAPSED TOTAL CPU TIME (SEC) =  0.34000    
       ELAPSED WALLCLOCK TIME (SEC) =          1

               CONVERGENCE CHECKS FOR EQUILIBRIUM ITERATION     1


 AVERAGE FORCE                      0.553       TIME AVG. FORCE       0.343    
 LARGEST RESIDUAL FORCE             8.582E-03   AT NODE       1959   DOF  3
   INSTANCE: BULDGE-SPECIMEN-1                                                               
 LARGEST INCREMENT OF DISP.        -0.125       AT NODE          1   DOF  3
   INSTANCE: BULDGE-SPECIMEN-1                                                               
 LARGEST CORRECTION TO DISP.        1.847E-02   AT NODE       2163   DOF  3
   INSTANCE: BULDGE-SPECIMEN-1                                                               
          FORCE     EQUILIBRIUM NOT ACHIEVED WITHIN TOLERANCE.

  NUMBER OF EQUATIONS =    10911     NUMBER OF FLOATING PT. OPERATIONS =  9.38E+08

  USING THE DIRECT SOLVER WITH  10 PROCESSORS

     CHECK POINT   START OF SOLVER    

     CHECK POINT  END OF SOLVER       

       ELAPSED USER TIME (SEC)      =  0.33000    
       ELAPSED SYSTEM TIME (SEC)    =  2.00000E-02
       ELAPSED TOTAL CPU TIME (SEC) =  0.35000    
       ELAPSED WALLCLOCK TIME (SEC) =          0

               CONVERGENCE CHECKS FOR EQUILIBRIUM ITERATION     2


 AVERAGE FORCE                      0.553       TIME AVG. FORCE       0.343    
 LARGEST RESIDUAL FORCE             9.161E-06   AT NODE       1959   DOF  3
   INSTANCE: BULDGE-SPECIMEN-1                                                               
 LARGEST INCREMENT OF DISP.        -0.125       AT NODE          1   DOF  3
   INSTANCE: BULDGE-SPECIMEN-1                                                               
 LARGEST CORRECTION TO DISP.        1.165E-03   AT NODE         55   DOF  3
   INSTANCE: BULDGE-SPECIMEN-1                                                               
          THE FORCE     EQUILIBRIUM EQUATIONS HAVE CONVERGED

 ITERATION SUMMARY FOR THE INCREMENT:   2 TOTAL ITERATIONS, OF WHICH
   0 ARE SEVERE DISCONTINUITY ITERATIONS AND  2 ARE EQUILIBRIUM ITERATIONS.

 TIME INCREMENT COMPLETED  0.625    ,  FRACTION OF STEP COMPLETED   1.00    
 STEP TIME COMPLETED        5.00    ,  TOTAL TIME COMPLETED         5.00    
1

   Abaqus 6.14-1                                  Date 02-Sep-2021   Time 11:42:40
   For use at UNIVERSITY OF CAPE TOWN under license from Dassault Systemes or its subsidiary.

                                                                                 
                                                                                 
 STEP    2     INCREMENT     1     STEP TIME    0.00    


                        S T E P       2     S T A T I C   A N A L Y S I S


                                                                                          

     AUTOMATIC TIME CONTROL WITH -
          A SUGGESTED INITIAL TIME INCREMENT OF                 5.00    
          AND A TOTAL TIME PERIOD OF                            5.00    
          THE MINIMUM TIME INCREMENT ALLOWED IS                5.000E-05
          THE MAXIMUM TIME INCREMENT ALLOWED IS                 5.00    

     LINEAR EQUATION SOLVER TYPE         DIRECT SPARSE

 CONVERGENCE TOLERANCE PARAMETERS FOR FORCE    
     CRITERION FOR RESIDUAL FORCE     FOR A NONLINEAR PROBLEM          5.000E-03
     CRITERION FOR DISP.    CORRECTION IN A NONLINEAR PROBLEM          1.000E-02
     INIT. VALUE OF TIME AVG. FORCE     IS TIME AVG. FORCE     IN PREVIOUS STEP
     AVERAGE FORCE     IS TIME AVERAGE FORCE    
     ALTERNATE CRIT. FOR RESIDUAL FORCE     FOR A NONLINEAR PROBLEM    2.000E-02
     CRITERION FOR ZERO FORCE     RELATIVE TO TIME AVRG. FORCE         1.000E-05
     CRITERION FOR RESIDUAL FORCE     WHEN THERE IS ZERO FLUX          1.000E-05
     CRITERION FOR DISP.    CORRECTION WHEN THERE IS ZERO FLUX         1.000E-03
     CRITERION FOR RESIDUAL FORCE     FOR A LINEAR INCREMENT           1.000E-08
     FIELD CONVERSION RATIO                                             1.00    
     CRITERION FOR ZERO FORCE     REL. TO TIME AVRG. MAX. FORCE        1.000E-05
     CRITERION FOR ZERO DISP.    RELATIVE TO CHARACTERISTIC LENGTH     1.000E-08

     VOLUMETRIC STRAIN COMPATIBILITY TOLERANCE FOR HYBRID SOLIDS       1.000E-05
     AXIAL STRAIN COMPATIBILITY TOLERANCE FOR HYBRID BEAMS             1.000E-05
     TRANS. SHEAR STRAIN COMPATIBILITY TOLERANCE FOR HYBRID BEAMS      1.000E-05
     SOFT CONTACT CONSTRAINT COMPATIBILITY TOLERANCE FOR P>P0          5.000E-03
     SOFT CONTACT CONSTRAINT COMPATIBILITY TOLERANCE FOR P=0.0         0.100    
     CONTACT FORCE ERROR TOLERANCE FOR CONVERT SDI=YES                 1.00    
     DISPLACEMENT COMPATIBILITY TOLERANCE FOR DCOUP ELEMENTS           1.000E-05
     ROTATION COMPATIBILITY TOLERANCE FOR DCOUP ELEMENTS               1.000E-05

 EQUILIBRIUM WILL BE CHECKED FOR SEVERE DISCONTINUITY ITERATIONS

 TIME INCREMENTATION CONTROL PARAMETERS:
     FIRST EQUILIBRIUM ITERATION FOR CONSECUTIVE DIVERGENCE CHECK              4
     EQUILIBRIUM ITERATION AT WHICH LOG. CONVERGENCE RATE CHECK BEGINS         8
     EQUILIBRIUM ITERATION AFTER WHICH ALTERNATE RESIDUAL IS USED              9
     MAXIMUM EQUILIBRIUM ITERATIONS ALLOWED                                   16
     EQUILIBRIUM ITERATION COUNT FOR CUT-BACK IN NEXT INCREMENT               10
     MAXIMUM EQUILIB. ITERS IN TWO INCREMENTS FOR TIME INCREMENT INCREASE      4
     MAXIMUM ITERATIONS FOR SEVERE DISCONTINUITIES                            50
     MAXIMUM CUT-BACKS ALLOWED IN AN INCREMENT                                 5
     MAXIMUM DISCON. ITERS IN TWO INCREMENTS FOR TIME INCREMENT INCREASE      50
     MAXIMUM CONTACT AUGMENTATIONS FOR *SURFACE BEHAVIOR,AUGMENTED LAGRANGE   50
     CUT-BACK FACTOR AFTER DIVERGENCE                                 0.2500    
     CUT-BACK FACTOR FOR TOO SLOW CONVERGENCE                         0.5000    
     CUT-BACK FACTOR AFTER TOO MANY EQUILIBRIUM ITERATIONS            0.7500    
     CUT-BACK FACTOR AFTER TOO MANY SEVERE DISCONTINUITY ITERATIONS   0.2500    
     CUT-BACK FACTOR AFTER PROBLEMS IN ELEMENT ASSEMBLY               0.2500    
     INCREASE FACTOR AFTER TWO INCREMENTS THAT CONVERGE QUICKLY        1.500    
     MAX. TIME INCREMENT INCREASE FACTOR ALLOWED                       1.500    
     MAX. TIME INCREMENT INCREASE FACTOR ALLOWED (DYNAMICS)            1.250    
     MAX. TIME INCREMENT INCREASE FACTOR ALLOWED (DIFFUSION)           2.000    
     MINIMUM TIME INCREMENT RATIO FOR EXTRAPOLATION TO OCCUR          0.1000    
     MAX. RATIO OF TIME INCREMENT TO STABILITY LIMIT                   1.000    
     FRACTION OF STABILITY LIMIT FOR NEW TIME INCREMENT               0.9500    
     TIME INCREMENT INCREASE FACTOR BEFORE A TIME POINT                1.000    
     GLOBAL STABILIZATION CONTROL IS NOT USED

          PRINT OF INCREMENT NUMBER, TIME, ETC., EVERY    1  INCREMENTS

     THE MAXIMUM NUMBER OF INCREMENTS IN THIS STEP IS                     100

          LARGE DISPLACEMENT THEORY WILL BE USED

     LINEAR EXTRAPOLATION WILL BE USED

     CHARACTERISTIC ELEMENT LENGTH      2.87    

     DETAILS REGARDING ACTUAL SOLUTION WAVEFRONT REQUESTED

     DETAILED OUTPUT OF DIAGNOSTICS TO DATABASE REQUESTED

     PRINT OF INCREMENT NUMBER, TIME, ETC., TO THE MESSAGE FILE EVERY     1  INCREMENTS

     ELEMENT OPERATIONS WILL BE CARRIED OUT IN PARALLEL USING  10 PROCESSORS
          THE INITIAL TIME INCREMENT WAS REDUCED TO    1.00     TO MEET THE NEXT OUTPUT TIME POINT

     COLLECTING STEP CONSTRAINT INFORMATION FOR OVERCONSTRAINT CHECKS
  
     ASYNCHRONOUS OUTPUT DATABASE FRAME FLUSH STARTED
  


  INCREMENT     1 STARTS. ATTEMPT NUMBER  1, TIME INCREMENT   1.00    
 
     INITIAL ELEMENT LOAD BALANCE
        COMPUTE NODE   1   PROCESS    NUMBER OF ELEMENTS
                              1            212
                              2            207
                              3            207
                              4            207
                              5            207
                              6            207
                              7            207
                              8            207
                              9            207
                             10            207

  NUMBER OF EQUATIONS =    10911     NUMBER OF FLOATING PT. OPERATIONS =  9.38E+08

  USING THE DIRECT SOLVER WITH  10 PROCESSORS

     CHECK POINT   START OF SOLVER    

     CHECK POINT  END OF SOLVER       

       ELAPSED USER TIME (SEC)      =  0.31000    
       ELAPSED SYSTEM TIME (SEC)    =  3.00000E-02
       ELAPSED TOTAL CPU TIME (SEC) =  0.34000    
       ELAPSED WALLCLOCK TIME (SEC) =          0

               CONVERGENCE CHECKS FOR EQUILIBRIUM ITERATION     1


 AVERAGE FORCE                       2.13       TIME AVG. FORCE        2.13    
 LARGEST RESIDUAL FORCE             -48.1       AT NODE       3271   DOF  3
   INSTANCE: BULDGE-SPECIMEN-1                                                               
 LARGEST INCREMENT OF DISP.          8.41       AT NODE         55   DOF  3
   INSTANCE: BULDGE-SPECIMEN-1                                                               
 LARGEST CORRECTION TO DISP.         8.41       AT NODE         55   DOF  3
   INSTANCE: BULDGE-SPECIMEN-1                                                               
          FORCE     EQUILIBRIUM NOT ACHIEVED WITHIN TOLERANCE.

  NUMBER OF EQUATIONS =    10911     NUMBER OF FLOATING PT. OPERATIONS =  9.38E+08

  USING THE DIRECT SOLVER WITH  10 PROCESSORS

     CHECK POINT   START OF SOLVER    

     CHECK POINT  END OF SOLVER       

       ELAPSED USER TIME (SEC)      =  0.32000    
       ELAPSED SYSTEM TIME (SEC)    =  2.00000E-02
       ELAPSED TOTAL CPU TIME (SEC) =  0.34000    
       ELAPSED WALLCLOCK TIME (SEC) =          0
 

 ***WARNING: THE SYSTEM MATRIX HAS 532 NEGATIVE EIGENVALUES.
             EXPLANATIONS ARE SUGGESTED AFTER THE FIRST OCCURRENCE OF THIS MESSAGE.
   ELEMENT BULDGE-SPECIMEN-1.1 IS DISTORTING EXCESSIVELY.
   ELEMENT BULDGE-SPECIMEN-1.1 IS DISTORTING EXCESSIVELY.
   ELEMENT BULDGE-SPECIMEN-1.1 IS DISTORTING EXCESSIVELY.
   ELEMENT BULDGE-SPECIMEN-1.2 IS DISTORTING EXCESSIVELY.
   ELEMENT BULDGE-SPECIMEN-1.2 IS DISTORTING EXCESSIVELY.
   ELEMENT BULDGE-SPECIMEN-1.3 IS DISTORTING EXCESSIVELY.
   ELEMENT BULDGE-SPECIMEN-1.3 IS DISTORTING EXCESSIVELY.
   ELEMENT BULDGE-SPECIMEN-1.3 IS DISTORTING EXCESSIVELY.
   ELEMENT BULDGE-SPECIMEN-1.4 IS DISTORTING EXCESSIVELY.
   ELEMENT BULDGE-SPECIMEN-1.5 IS DISTORTING EXCESSIVELY.
   ELEMENT BULDGE-SPECIMEN-1.6 IS DISTORTING EXCESSIVELY.
   ELEMENT BULDGE-SPECIMEN-1.6 IS DISTORTING EXCESSIVELY.
   ELEMENT BULDGE-SPECIMEN-1.6 IS DISTORTING EXCESSIVELY.
   ELEMENT BULDGE-SPECIMEN-1.7 IS DISTORTING EXCESSIVELY.
   ELEMENT BULDGE-SPECIMEN-1.7 IS DISTORTING EXCESSIVELY.
   ELEMENT BULDGE-SPECIMEN-1.7 IS DISTORTING EXCESSIVELY.
   ELEMENT BULDGE-SPECIMEN-1.7 IS DISTORTING EXCESSIVELY.
   ELEMENT BULDGE-SPECIMEN-1.8 IS DISTORTING EXCESSIVELY.
   ELEMENT BULDGE-SPECIMEN-1.9 IS DISTORTING EXCESSIVELY.
   ELEMENT BULDGE-SPECIMEN-1.9 IS DISTORTING EXCESSIVELY.
   ELEMENT BULDGE-SPECIMEN-1.9 IS DISTORTING EXCESSIVELY.
   ELEMENT BULDGE-SPECIMEN-1.9 IS DISTORTING EXCESSIVELY.
   ELEMENT BULDGE-SPECIMEN-1.10 IS DISTORTING EXCESSIVELY.
   ELEMENT BULDGE-SPECIMEN-1.10 IS DISTORTING EXCESSIVELY.
   ELEMENT BULDGE-SPECIMEN-1.10 IS DISTORTING EXCESSIVELY.
   ELEMENT BULDGE-SPECIMEN-1.11 IS DISTORTING EXCESSIVELY.
   ELEMENT BULDGE-SPECIMEN-1.11 IS DISTORTING EXCESSIVELY.
   ELEMENT BULDGE-SPECIMEN-1.12 IS DISTORTING EXCESSIVELY.
   ELEMENT BULDGE-SPECIMEN-1.12 IS DISTORTING EXCESSIVELY.
   ELEMENT BULDGE-SPECIMEN-1.12 IS DISTORTING EXCESSIVELY.
   ELEMENT BULDGE-SPECIMEN-1.13 IS DISTORTING EXCESSIVELY.
   ELEMENT BULDGE-SPECIMEN-1.13 IS DISTORTING EXCESSIVELY.
   ELEMENT BULDGE-SPECIMEN-1.14 IS DISTORTING EXCESSIVELY.
   ELEMENT BULDGE-SPECIMEN-1.15 IS DISTORTING EXCESSIVELY.
   ELEMENT BULDGE-SPECIMEN-1.15 IS DISTORTING EXCESSIVELY.
   ELEMENT BULDGE-SPECIMEN-1.15 IS DISTORTING EXCESSIVELY.
   ELEMENT BULDGE-SPECIMEN-1.16 IS DISTORTING EXCESSIVELY.
   ELEMENT BULDGE-SPECIMEN-1.16 IS DISTORTING EXCESSIVELY.
   ELEMENT BULDGE-SPECIMEN-1.17 IS DISTORTING EXCESSIVELY.
   ELEMENT BULDGE-SPECIMEN-1.17 IS DISTORTING EXCESSIVELY.
   ELEMENT BULDGE-SPECIMEN-1.17 IS DISTORTING EXCESSIVELY.
   ELEMENT BULDGE-SPECIMEN-1.18 IS DISTORTING EXCESSIVELY.
   ELEMENT BULDGE-SPECIMEN-1.18 IS DISTORTING EXCESSIVELY.
   ELEMENT BULDGE-SPECIMEN-1.19 IS DISTORTING EXCESSIVELY.
   ELEMENT BULDGE-SPECIMEN-1.19 IS DISTORTING EXCESSIVELY.
   ELEMENT BULDGE-SPECIMEN-1.20 IS DISTORTING EXCESSIVELY.
   ELEMENT BULDGE-SPECIMEN-1.20 IS DISTORTING EXCESSIVELY.
   ELEMENT BULDGE-SPECIMEN-1.21 IS DISTORTING EXCESSIVELY.
   ELEMENT BULDGE-SPECIMEN-1.21 IS DISTORTING EXCESSIVELY.
   ELEMENT BULDGE-SPECIMEN-1.22 IS DISTORTING EXCESSIVELY.
   ELEMENT BULDGE-SPECIMEN-1.23 IS DISTORTING EXCESSIVELY.
   ELEMENT BULDGE-SPECIMEN-1.23 IS DISTORTING EXCESSIVELY.
   ELEMENT BULDGE-SPECIMEN-1.24 IS DISTORTING EXCESSIVELY.
   ELEMENT BULDGE-SPECIMEN-1.24 IS DISTORTING EXCESSIVELY.
   ELEMENT BULDGE-SPECIMEN-1.24 IS DISTORTING EXCESSIVELY.
   ELEMENT BULDGE-SPECIMEN-1.24 IS DISTORTING EXCESSIVELY.
   ELEMENT BULDGE-SPECIMEN-1.25 IS DISTORTING EXCESSIVELY.
   ELEMENT BULDGE-SPECIMEN-1.25 IS DISTORTING EXCESSIVELY.
   ELEMENT BULDGE-SPECIMEN-1.26 IS DISTORTING EXCESSIVELY.
   ELEMENT BULDGE-SPECIMEN-1.27 IS DISTORTING EXCESSIVELY.
   ELEMENT BULDGE-SPECIMEN-1.27 IS DISTORTING EXCESSIVELY.
   ELEMENT BULDGE-SPECIMEN-1.27 IS DISTORTING EXCESSIVELY.
   ELEMENT BULDGE-SPECIMEN-1.28 IS DISTORTING EXCESSIVELY.
   ELEMENT BULDGE-SPECIMEN-1.28 IS DISTORTING EXCESSIVELY.
   ELEMENT BULDGE-SPECIMEN-1.29 IS DISTORTING EXCESSIVELY.
   ELEMENT BULDGE-SPECIMEN-1.30 IS DISTORTING EXCESSIVELY.
   ELEMENT BULDGE-SPECIMEN-1.30 IS DISTORTING EXCESSIVELY.
   ELEMENT BULDGE-SPECIMEN-1.30 IS DISTORTING EXCESSIVELY.
   ELEMENT BULDGE-SPECIMEN-1.30 IS DISTORTING EXCESSIVELY.
   ELEMENT BULDGE-SPECIMEN-1.31 IS DISTORTING EXCESSIVELY.
   ELEMENT BULDGE-SPECIMEN-1.31 IS DISTORTING EXCESSIVELY.
   ELEMENT BULDGE-SPECIMEN-1.31 IS DISTORTING EXCESSIVELY.
   ELEMENT BULDGE-SPECIMEN-1.31 IS DISTORTING EXCESSIVELY.
   ELEMENT BULDGE-SPECIMEN-1.32 IS DISTORTING EXCESSIVELY.
   ELEMENT BULDGE-SPECIMEN-1.32 IS DISTORTING EXCESSIVELY.
   ELEMENT BULDGE-SPECIMEN-1.32 IS DISTORTING EXCESSIVELY.
   ELEMENT BULDGE-SPECIMEN-1.32 IS DISTORTING EXCESSIVELY.
   ELEMENT BULDGE-SPECIMEN-1.33 IS DISTORTING EXCESSIVELY.
   ELEMENT BULDGE-SPECIMEN-1.33 IS DISTORTING EXCESSIVELY.
   ELEMENT BULDGE-SPECIMEN-1.34 IS DISTORTING EXCESSIVELY.
   ELEMENT BULDGE-SPECIMEN-1.34 IS DISTORTING EXCESSIVELY.
   ELEMENT BULDGE-SPECIMEN-1.34 IS DISTORTING EXCESSIVELY.
   ELEMENT BULDGE-SPECIMEN-1.35 IS DISTORTING EXCESSIVELY.
   ELEMENT BULDGE-SPECIMEN-1.35 IS DISTORTING EXCESSIVELY.
   ELEMENT BULDGE-SPECIMEN-1.35 IS DISTORTING EXCESSIVELY.
   ELEMENT BULDGE-SPECIMEN-1.36 IS DISTORTING EXCESSIVELY.
   ELEMENT BULDGE-SPECIMEN-1.36 IS DISTORTING EXCESSIVELY.
   ELEMENT BULDGE-SPECIMEN-1.37 IS DISTORTING EXCESSIVELY.
   ELEMENT BULDGE-SPECIMEN-1.37 IS DISTORTING EXCESSIVELY.
   ELEMENT BULDGE-SPECIMEN-1.38 IS DISTORTING EXCESSIVELY.
   ELEMENT BULDGE-SPECIMEN-1.38 IS DISTORTING EXCESSIVELY.
   ELEMENT BULDGE-SPECIMEN-1.38 IS DISTORTING EXCESSIVELY.
   ELEMENT BULDGE-SPECIMEN-1.39 IS DISTORTING EXCESSIVELY.
   ELEMENT BULDGE-SPECIMEN-1.40 IS DISTORTING EXCESSIVELY.
   ELEMENT BULDGE-SPECIMEN-1.40 IS DISTORTING EXCESSIVELY.
   ELEMENT BULDGE-SPECIMEN-1.40 IS DISTORTING EXCESSIVELY.
   ELEMENT BULDGE-SPECIMEN-1.41 IS DISTORTING EXCESSIVELY.
   ELEMENT BULDGE-SPECIMEN-1.44 IS DISTORTING EXCESSIVELY.
   ELEMENT BULDGE-SPECIMEN-1.44 IS DISTORTING EXCESSIVELY.
   ELEMENT BULDGE-SPECIMEN-1.45 IS DISTORTING EXCESSIVELY.
   ELEMENT BULDGE-SPECIMEN-1.45 IS DISTORTING EXCESSIVELY.
   ELEMENT BULDGE-SPECIMEN-1.46 IS DISTORTING EXCESSIVELY.
   ELEMENT BULDGE-SPECIMEN-1.46 IS DISTORTING EXCESSIVELY.
   ELEMENT BULDGE-SPECIMEN-1.46 IS DISTORTING EXCESSIVELY.
   ELEMENT BULDGE-SPECIMEN-1.47 IS DISTORTING EXCESSIVELY.
   ELEMENT BULDGE-SPECIMEN-1.47 IS DISTORTING EXCESSIVELY.
   ELEMENT BULDGE-SPECIMEN-1.48 IS DISTORTING EXCESSIVELY.
   ELEMENT BULDGE-SPECIMEN-1.48 IS DISTORTING EXCESSIVELY.
   ELEMENT BULDGE-SPECIMEN-1.48 IS DISTORTING EXCESSIVELY.
   ELEMENT BULDGE-SPECIMEN-1.49 IS DISTORTING EXCESSIVELY.
   ELEMENT BULDGE-SPECIMEN-1.49 IS DISTORTING EXCESSIVELY.
   ELEMENT BULDGE-SPECIMEN-1.50 IS DISTORTING EXCESSIVELY.
   ELEMENT BULDGE-SPECIMEN-1.50 IS DISTORTING EXCESSIVELY.
   ELEMENT BULDGE-SPECIMEN-1.51 IS DISTORTING EXCESSIVELY.
   ELEMENT BULDGE-SPECIMEN-1.51 IS DISTORTING EXCESSIVELY.
   ELEMENT BULDGE-SPECIMEN-1.51 IS DISTORTING EXCESSIVELY.
   ELEMENT BULDGE-SPECIMEN-1.53 IS DISTORTING EXCESSIVELY.
   ELEMENT BULDGE-SPECIMEN-1.54 IS DISTORTING EXCESSIVELY.
   ELEMENT BULDGE-SPECIMEN-1.54 IS DISTORTING EXCESSIVELY.
   ELEMENT BULDGE-SPECIMEN-1.54 IS DISTORTING EXCESSIVELY.
   ELEMENT BULDGE-SPECIMEN-1.55 IS DISTORTING EXCESSIVELY.
   ELEMENT BULDGE-SPECIMEN-1.55 IS DISTORTING EXCESSIVELY.
   ELEMENT BULDGE-SPECIMEN-1.55 IS DISTORTING EXCESSIVELY.
   ELEMENT BULDGE-SPECIMEN-1.56 IS DISTORTING EXCESSIVELY.
   ELEMENT BULDGE-SPECIMEN-1.57 IS DISTORTING EXCESSIVELY.
   ELEMENT BULDGE-SPECIMEN-1.58 IS DISTORTING EXCESSIVELY.
   ELEMENT BULDGE-SPECIMEN-1.58 IS DISTORTING EXCESSIVELY.
   ELEMENT BULDGE-SPECIMEN-1.59 IS DISTORTING EXCESSIVELY.
   ELEMENT BULDGE-SPECIMEN-1.60 IS DISTORTING EXCESSIVELY.
   ELEMENT BULDGE-SPECIMEN-1.61 IS DISTORTING EXCESSIVELY.
   ELEMENT BULDGE-SPECIMEN-1.61 IS DISTORTING EXCESSIVELY.
   ELEMENT BULDGE-SPECIMEN-1.62 IS DISTORTING EXCESSIVELY.
   ELEMENT BULDGE-SPECIMEN-1.62 IS DISTORTING EXCESSIVELY.
   ELEMENT BULDGE-SPECIMEN-1.62 IS DISTORTING EXCESSIVELY.
   ELEMENT BULDGE-SPECIMEN-1.62 IS DISTORTING EXCESSIVELY.
   ELEMENT BULDGE-SPECIMEN-1.63 IS DISTORTING EXCESSIVELY.
   ELEMENT BULDGE-SPECIMEN-1.63 IS DISTORTING EXCESSIVELY.
   ELEMENT BULDGE-SPECIMEN-1.63 IS DISTORTING EXCESSIVELY.
   ELEMENT BULDGE-SPECIMEN-1.64 IS DISTORTING EXCESSIVELY.
   ELEMENT BULDGE-SPECIMEN-1.65 IS DISTORTING EXCESSIVELY.
   ELEMENT BULDGE-SPECIMEN-1.66 IS DISTORTING EXCESSIVELY.
   ELEMENT BULDGE-SPECIMEN-1.67 IS DISTORTING EXCESSIVELY.
   ELEMENT BULDGE-SPECIMEN-1.67 IS DISTORTING EXCESSIVELY.
   ELEMENT BULDGE-SPECIMEN-1.67 IS DISTORTING EXCESSIVELY.
   ELEMENT BULDGE-SPECIMEN-1.68 IS DISTORTING EXCESSIVELY.
   ELEMENT BULDGE-SPECIMEN-1.68 IS DISTORTING EXCESSIVELY.
   ELEMENT BULDGE-SPECIMEN-1.69 IS DISTORTING EXCESSIVELY.
   ELEMENT BULDGE-SPECIMEN-1.69 IS DISTORTING EXCESSIVELY.
   ELEMENT BULDGE-SPECIMEN-1.69 IS DISTORTING EXCESSIVELY.
   ELEMENT BULDGE-SPECIMEN-1.69 IS DISTORTING EXCESSIVELY.
   ELEMENT BULDGE-SPECIMEN-1.70 IS DISTORTING EXCESSIVELY.
   ELEMENT BULDGE-SPECIMEN-1.70 IS DISTORTING EXCESSIVELY.
   ELEMENT BULDGE-SPECIMEN-1.71 IS DISTORTING EXCESSIVELY.
   ELEMENT BULDGE-SPECIMEN-1.71 IS DISTORTING EXCESSIVELY.
   ELEMENT BULDGE-SPECIMEN-1.72 IS DISTORTING EXCESSIVELY.
   ELEMENT BULDGE-SPECIMEN-1.72 IS DISTORTING EXCESSIVELY.
   ELEMENT BULDGE-SPECIMEN-1.73 IS DISTORTING EXCESSIVELY.
   ELEMENT BULDGE-SPECIMEN-1.73 IS DISTORTING EXCESSIVELY.
   ELEMENT BULDGE-SPECIMEN-1.73 IS DISTORTING EXCESSIVELY.
   ELEMENT BULDGE-SPECIMEN-1.73 IS DISTORTING EXCESSIVELY.
   ELEMENT BULDGE-SPECIMEN-1.74 IS DISTORTING EXCESSIVELY.
   ELEMENT BULDGE-SPECIMEN-1.74 IS DISTORTING EXCESSIVELY.
   ELEMENT BULDGE-SPECIMEN-1.75 IS DISTORTING EXCESSIVELY.
   ELEMENT BULDGE-SPECIMEN-1.75 IS DISTORTING EXCESSIVELY.
   ELEMENT BULDGE-SPECIMEN-1.75 IS DISTORTING EXCESSIVELY.
   ELEMENT BULDGE-SPECIMEN-1.76 IS DISTORTING EXCESSIVELY.
   ELEMENT BULDGE-SPECIMEN-1.76 IS DISTORTING EXCESSIVELY.
   ELEMENT BULDGE-SPECIMEN-1.77 IS DISTORTING EXCESSIVELY.
   ELEMENT BULDGE-SPECIMEN-1.77 IS DISTORTING EXCESSIVELY.
   ELEMENT BULDGE-SPECIMEN-1.77 IS DISTORTING EXCESSIVELY.
   ELEMENT BULDGE-SPECIMEN-1.78 IS DISTORTING EXCESSIVELY.
   ELEMENT BULDGE-SPECIMEN-1.78 IS DISTORTING EXCESSIVELY.
   ELEMENT BULDGE-SPECIMEN-1.78 IS DISTORTING EXCESSIVELY.
   ELEMENT BULDGE-SPECIMEN-1.78 IS DISTORTING EXCESSIVELY.
   ELEMENT BULDGE-SPECIMEN-1.79 IS DISTORTING EXCESSIVELY.
   ELEMENT BULDGE-SPECIMEN-1.80 IS DISTORTING EXCESSIVELY.
   ELEMENT BULDGE-SPECIMEN-1.80 IS DISTORTING EXCESSIVELY.
   ELEMENT BULDGE-SPECIMEN-1.80 IS DISTORTING EXCESSIVELY.
   ELEMENT BULDGE-SPECIMEN-1.80 IS DISTORTING EXCESSIVELY.
   ELEMENT BULDGE-SPECIMEN-1.81 IS DISTORTING EXCESSIVELY.
   ELEMENT BULDGE-SPECIMEN-1.81 IS DISTORTING EXCESSIVELY.
   ELEMENT BULDGE-SPECIMEN-1.82 IS DISTORTING EXCESSIVELY.
   ELEMENT BULDGE-SPECIMEN-1.82 IS DISTORTING EXCESSIVELY.
   ELEMENT BULDGE-SPECIMEN-1.82 IS DISTORTING EXCESSIVELY.
   ELEMENT BULDGE-SPECIMEN-1.82 IS DISTORTING EXCESSIVELY.
   ELEMENT BULDGE-SPECIMEN-1.83 IS DISTORTING EXCESSIVELY.
   ELEMENT BULDGE-SPECIMEN-1.83 IS DISTORTING EXCESSIVELY.
   ELEMENT BULDGE-SPECIMEN-1.83 IS DISTORTING EXCESSIVELY.
   ELEMENT BULDGE-SPECIMEN-1.84 IS DISTORTING EXCESSIVELY.
   ELEMENT BULDGE-SPECIMEN-1.84 IS DISTORTING EXCESSIVELY.
   ELEMENT BULDGE-SPECIMEN-1.85 IS DISTORTING EXCESSIVELY.
   ELEMENT BULDGE-SPECIMEN-1.85 IS DISTORTING EXCESSIVELY.
   ELEMENT BULDGE-SPECIMEN-1.85 IS DISTORTING EXCESSIVELY.
   ELEMENT BULDGE-SPECIMEN-1.86 IS DISTORTING EXCESSIVELY.
   ELEMENT BULDGE-SPECIMEN-1.87 IS DISTORTING EXCESSIVELY.
   ELEMENT BULDGE-SPECIMEN-1.87 IS DISTORTING EXCESSIVELY.
   ELEMENT BULDGE-SPECIMEN-1.88 IS DISTORTING EXCESSIVELY.
   ELEMENT BULDGE-SPECIMEN-1.90 IS DISTORTING EXCESSIVELY.
   ELEMENT BULDGE-SPECIMEN-1.92 IS DISTORTING EXCESSIVELY.
   ELEMENT BULDGE-SPECIMEN-1.92 IS DISTORTING EXCESSIVELY.
   ELEMENT BULDGE-SPECIMEN-1.92 IS DISTORTING EXCESSIVELY.
   ELEMENT BULDGE-SPECIMEN-1.92 IS DISTORTING EXCESSIVELY.
   ELEMENT BULDGE-SPECIMEN-1.93 IS DISTORTING EXCESSIVELY.
   ELEMENT BULDGE-SPECIMEN-1.93 IS DISTORTING EXCESSIVELY.
   ELEMENT BULDGE-SPECIMEN-1.93 IS DISTORTING EXCESSIVELY.
   ELEMENT BULDGE-SPECIMEN-1.93 IS DISTORTING EXCESSIVELY.
   ELEMENT BULDGE-SPECIMEN-1.94 IS DISTORTING EXCESSIVELY.
   ELEMENT BULDGE-SPECIMEN-1.94 IS DISTORTING EXCESSIVELY.
   ELEMENT BULDGE-SPECIMEN-1.94 IS DISTORTING EXCESSIVELY.
   ELEMENT BULDGE-SPECIMEN-1.95 IS DISTORTING EXCESSIVELY.
   ELEMENT BULDGE-SPECIMEN-1.96 IS DISTORTING EXCESSIVELY.
   ELEMENT BULDGE-SPECIMEN-1.96 IS DISTORTING EXCESSIVELY.
   ELEMENT BULDGE-SPECIMEN-1.96 IS DISTORTING EXCESSIVELY.
   ELEMENT BULDGE-SPECIMEN-1.97 IS DISTORTING EXCESSIVELY.
   ELEMENT BULDGE-SPECIMEN-1.98 IS DISTORTING EXCESSIVELY.
   ELEMENT BULDGE-SPECIMEN-1.103 IS DISTORTING EXCESSIVELY.
   ELEMENT BULDGE-SPECIMEN-1.103 IS DISTORTING EXCESSIVELY.
   ELEMENT BULDGE-SPECIMEN-1.103 IS DISTORTING EXCESSIVELY.
   ELEMENT BULDGE-SPECIMEN-1.104 IS DISTORTING EXCESSIVELY.
   ELEMENT BULDGE-SPECIMEN-1.104 IS DISTORTING EXCESSIVELY.
   ELEMENT BULDGE-SPECIMEN-1.104 IS DISTORTING EXCESSIVELY.
   ELEMENT BULDGE-SPECIMEN-1.104 IS DISTORTING EXCESSIVELY.
   ELEMENT BULDGE-SPECIMEN-1.105 IS DISTORTING EXCESSIVELY.
   ELEMENT BULDGE-SPECIMEN-1.105 IS DISTORTING EXCESSIVELY.
   ELEMENT BULDGE-SPECIMEN-1.105 IS DISTORTING EXCESSIVELY.
   ELEMENT BULDGE-SPECIMEN-1.105 IS DISTORTING EXCESSIVELY.
   ELEMENT BULDGE-SPECIMEN-1.106 IS DISTORTING EXCESSIVELY.
   ELEMENT BULDGE-SPECIMEN-1.106 IS DISTORTING EXCESSIVELY.
   ELEMENT BULDGE-SPECIMEN-1.106 IS DISTORTING EXCESSIVELY.
   ELEMENT BULDGE-SPECIMEN-1.108 IS DISTORTING EXCESSIVELY.
   ELEMENT BULDGE-SPECIMEN-1.108 IS DISTORTING EXCESSIVELY.
   ELEMENT BULDGE-SPECIMEN-1.110 IS DISTORTING EXCESSIVELY.
   ELEMENT BULDGE-SPECIMEN-1.110 IS DISTORTING EXCESSIVELY.
   ELEMENT BULDGE-SPECIMEN-1.111 IS DISTORTING EXCESSIVELY.
   ELEMENT BULDGE-SPECIMEN-1.111 IS DISTORTING EXCESSIVELY.
   ELEMENT BULDGE-SPECIMEN-1.111 IS DISTORTING EXCESSIVELY.
   ELEMENT BULDGE-SPECIMEN-1.111 IS DISTORTING EXCESSIVELY.
   ELEMENT BULDGE-SPECIMEN-1.112 IS DISTORTING EXCESSIVELY.
   ELEMENT BULDGE-SPECIMEN-1.113 IS DISTORTING EXCESSIVELY.
   ELEMENT BULDGE-SPECIMEN-1.113 IS DISTORTING EXCESSIVELY.
   ELEMENT BULDGE-SPECIMEN-1.113 IS DISTORTING EXCESSIVELY.
   ELEMENT BULDGE-SPECIMEN-1.113 IS DISTORTING EXCESSIVELY.
   ELEMENT BULDGE-SPECIMEN-1.114 IS DISTORTING EXCESSIVELY.
   ELEMENT BULDGE-SPECIMEN-1.114 IS DISTORTING EXCESSIVELY.
   ELEMENT BULDGE-SPECIMEN-1.115 IS DISTORTING EXCESSIVELY.
   ELEMENT BULDGE-SPECIMEN-1.115 IS DISTORTING EXCESSIVELY.
   ELEMENT BULDGE-SPECIMEN-1.115 IS DISTORTING EXCESSIVELY.
   ELEMENT BULDGE-SPECIMEN-1.115 IS DISTORTING EXCESSIVELY.
   ELEMENT BULDGE-SPECIMEN-1.116 IS DISTORTING EXCESSIVELY.
   ELEMENT BULDGE-SPECIMEN-1.116 IS DISTORTING EXCESSIVELY.
   ELEMENT BULDGE-SPECIMEN-1.117 IS DISTORTING EXCESSIVELY.
   ELEMENT BULDGE-SPECIMEN-1.118 IS DISTORTING EXCESSIVELY.
   ELEMENT BULDGE-SPECIMEN-1.118 IS DISTORTING EXCESSIVELY.
   ELEMENT BULDGE-SPECIMEN-1.119 IS DISTORTING EXCESSIVELY.
   ELEMENT BULDGE-SPECIMEN-1.119 IS DISTORTING EXCESSIVELY.
   ELEMENT BULDGE-SPECIMEN-1.119 IS DISTORTING EXCESSIVELY.
   ELEMENT BULDGE-SPECIMEN-1.119 IS DISTORTING EXCESSIVELY.
   ELEMENT BULDGE-SPECIMEN-1.120 IS DISTORTING EXCESSIVELY.
   ELEMENT BULDGE-SPECIMEN-1.120 IS DISTORTING EXCESSIVELY.
   ELEMENT BULDGE-SPECIMEN-1.120 IS DISTORTING EXCESSIVELY.
   ELEMENT BULDGE-SPECIMEN-1.121 IS DISTORTING EXCESSIVELY.
   ELEMENT BULDGE-SPECIMEN-1.121 IS DISTORTING EXCESSIVELY.
   ELEMENT BULDGE-SPECIMEN-1.122 IS DISTORTING EXCESSIVELY.
   ELEMENT BULDGE-SPECIMEN-1.122 IS DISTORTING EXCESSIVELY.
   ELEMENT BULDGE-SPECIMEN-1.123 IS DISTORTING EXCESSIVELY.
   ELEMENT BULDGE-SPECIMEN-1.124 IS DISTORTING EXCESSIVELY.
   ELEMENT BULDGE-SPECIMEN-1.125 IS DISTORTING EXCESSIVELY.
   ELEMENT BULDGE-SPECIMEN-1.125 IS DISTORTING EXCESSIVELY.
   ELEMENT BULDGE-SPECIMEN-1.126 IS DISTORTING EXCESSIVELY.
   ELEMENT BULDGE-SPECIMEN-1.126 IS DISTORTING EXCESSIVELY.
   ELEMENT BULDGE-SPECIMEN-1.127 IS DISTORTING EXCESSIVELY.
   ELEMENT BULDGE-SPECIMEN-1.127 IS DISTORTING EXCESSIVELY.
   ELEMENT BULDGE-SPECIMEN-1.127 IS DISTORTING EXCESSIVELY.
   ELEMENT BULDGE-SPECIMEN-1.128 IS DISTORTING EXCESSIVELY.
   ELEMENT BULDGE-SPECIMEN-1.128 IS DISTORTING EXCESSIVELY.
   ELEMENT BULDGE-SPECIMEN-1.128 IS DISTORTING EXCESSIVELY.
   ELEMENT BULDGE-SPECIMEN-1.128 IS DISTORTING EXCESSIVELY.
   ELEMENT BULDGE-SPECIMEN-1.129 IS DISTORTING EXCESSIVELY.
   ELEMENT BULDGE-SPECIMEN-1.129 IS DISTORTING EXCESSIVELY.
   ELEMENT BULDGE-SPECIMEN-1.130 IS DISTORTING EXCESSIVELY.
   ELEMENT BULDGE-SPECIMEN-1.130 IS DISTORTING EXCESSIVELY.
   ELEMENT BULDGE-SPECIMEN-1.131 IS DISTORTING EXCESSIVELY.
   ELEMENT BULDGE-SPECIMEN-1.131 IS DISTORTING EXCESSIVELY.
   ELEMENT BULDGE-SPECIMEN-1.131 IS DISTORTING EXCESSIVELY.
   ELEMENT BULDGE-SPECIMEN-1.131 IS DISTORTING EXCESSIVELY.
   ELEMENT BULDGE-SPECIMEN-1.132 IS DISTORTING EXCESSIVELY.
   ELEMENT BULDGE-SPECIMEN-1.133 IS DISTORTING EXCESSIVELY.
   ELEMENT BULDGE-SPECIMEN-1.133 IS DISTORTING EXCESSIVELY.
   ELEMENT BULDGE-SPECIMEN-1.133 IS DISTORTING EXCESSIVELY.
   ELEMENT BULDGE-SPECIMEN-1.134 IS DISTORTING EXCESSIVELY.
   ELEMENT BULDGE-SPECIMEN-1.134 IS DISTORTING EXCESSIVELY.
   ELEMENT BULDGE-SPECIMEN-1.135 IS DISTORTING EXCESSIVELY.
   ELEMENT BULDGE-SPECIMEN-1.135 IS DISTORTING EXCESSIVELY.
   ELEMENT BULDGE-SPECIMEN-1.135 IS DISTORTING EXCESSIVELY.
   ELEMENT BULDGE-SPECIMEN-1.136 IS DISTORTING EXCESSIVELY.
   ELEMENT BULDGE-SPECIMEN-1.137 IS DISTORTING EXCESSIVELY.
   ELEMENT BULDGE-SPECIMEN-1.140 IS DISTORTING EXCESSIVELY.
   ELEMENT BULDGE-SPECIMEN-1.141 IS DISTORTING EXCESSIVELY.
   ELEMENT BULDGE-SPECIMEN-1.141 IS DISTORTING EXCESSIVELY.
   ELEMENT BULDGE-SPECIMEN-1.141 IS DISTORTING EXCESSIVELY.
   ELEMENT BULDGE-SPECIMEN-1.142 IS DISTORTING EXCESSIVELY.
   ELEMENT BULDGE-SPECIMEN-1.142 IS DISTORTING EXCESSIVELY.
   ELEMENT BULDGE-SPECIMEN-1.142 IS DISTORTING EXCESSIVELY.
   ELEMENT BULDGE-SPECIMEN-1.142 IS DISTORTING EXCESSIVELY.
   ELEMENT BULDGE-SPECIMEN-1.143 IS DISTORTING EXCESSIVELY.
   ELEMENT BULDGE-SPECIMEN-1.143 IS DISTORTING EXCESSIVELY.
   ELEMENT BULDGE-SPECIMEN-1.144 IS DISTORTING EXCESSIVELY.
   ELEMENT BULDGE-SPECIMEN-1.144 IS DISTORTING EXCESSIVELY.
   ELEMENT BULDGE-SPECIMEN-1.144 IS DISTORTING EXCESSIVELY.
   ELEMENT BULDGE-SPECIMEN-1.145 IS DISTORTING EXCESSIVELY.
   ELEMENT BULDGE-SPECIMEN-1.146 IS DISTORTING EXCESSIVELY.
   ELEMENT BULDGE-SPECIMEN-1.146 IS DISTORTING EXCESSIVELY.
   ELEMENT BULDGE-SPECIMEN-1.146 IS DISTORTING EXCESSIVELY.
   ELEMENT BULDGE-SPECIMEN-1.147 IS DISTORTING EXCESSIVELY.
   ELEMENT BULDGE-SPECIMEN-1.147 IS DISTORTING EXCESSIVELY.
   ELEMENT BULDGE-SPECIMEN-1.148 IS DISTORTING EXCESSIVELY.
   ELEMENT BULDGE-SPECIMEN-1.148 IS DISTORTING EXCESSIVELY.
   ELEMENT BULDGE-SPECIMEN-1.148 IS DISTORTING EXCESSIVELY.
   ELEMENT BULDGE-SPECIMEN-1.149 IS DISTORTING EXCESSIVELY.
   ELEMENT BULDGE-SPECIMEN-1.150 IS DISTORTING EXCESSIVELY.
   ELEMENT BULDGE-SPECIMEN-1.150 IS DISTORTING EXCESSIVELY.
   ELEMENT BULDGE-SPECIMEN-1.150 IS DISTORTING EXCESSIVELY.
   ELEMENT BULDGE-SPECIMEN-1.151 IS DISTORTING EXCESSIVELY.
   ELEMENT BULDGE-SPECIMEN-1.151 IS DISTORTING EXCESSIVELY.
   ELEMENT BULDGE-SPECIMEN-1.152 IS DISTORTING EXCESSIVELY.
   ELEMENT BULDGE-SPECIMEN-1.153 IS DISTORTING EXCESSIVELY.
   ELEMENT BULDGE-SPECIMEN-1.153 IS DISTORTING EXCESSIVELY.
   ELEMENT BULDGE-SPECIMEN-1.153 IS DISTORTING EXCESSIVELY.
   ELEMENT BULDGE-SPECIMEN-1.154 IS DISTORTING EXCESSIVELY.
   ELEMENT BULDGE-SPECIMEN-1.154 IS DISTORTING EXCESSIVELY.
   ELEMENT BULDGE-SPECIMEN-1.154 IS DISTORTING EXCESSIVELY.
   ELEMENT BULDGE-SPECIMEN-1.155 IS DISTORTING EXCESSIVELY.
   ELEMENT BULDGE-SPECIMEN-1.155 IS DISTORTING EXCESSIVELY.
   ELEMENT BULDGE-SPECIMEN-1.155 IS DISTORTING EXCESSIVELY.
   ELEMENT BULDGE-SPECIMEN-1.156 IS DISTORTING EXCESSIVELY.
   ELEMENT BULDGE-SPECIMEN-1.156 IS DISTORTING EXCESSIVELY.
   ELEMENT BULDGE-SPECIMEN-1.156 IS DISTORTING EXCESSIVELY.
   ELEMENT BULDGE-SPECIMEN-1.156 IS DISTORTING EXCESSIVELY.
   ELEMENT BULDGE-SPECIMEN-1.157 IS DISTORTING EXCESSIVELY.
   ELEMENT BULDGE-SPECIMEN-1.158 IS DISTORTING EXCESSIVELY.
   ELEMENT BULDGE-SPECIMEN-1.158 IS DISTORTING EXCESSIVELY.
   ELEMENT BULDGE-SPECIMEN-1.158 IS DISTORTING EXCESSIVELY.
   ELEMENT BULDGE-SPECIMEN-1.159 IS DISTORTING EXCESSIVELY.
   ELEMENT BULDGE-SPECIMEN-1.159 IS DISTORTING EXCESSIVELY.
   ELEMENT BULDGE-SPECIMEN-1.160 IS DISTORTING EXCESSIVELY.
   ELEMENT BULDGE-SPECIMEN-1.160 IS DISTORTING EXCESSIVELY.
   ELEMENT BULDGE-SPECIMEN-1.161 IS DISTORTING EXCESSIVELY.
   ELEMENT BULDGE-SPECIMEN-1.161 IS DISTORTING EXCESSIVELY.
   ELEMENT BULDGE-SPECIMEN-1.162 IS DISTORTING EXCESSIVELY.
   ELEMENT BULDGE-SPECIMEN-1.163 IS DISTORTING EXCESSIVELY.
   ELEMENT BULDGE-SPECIMEN-1.163 IS DISTORTING EXCESSIVELY.
   ELEMENT BULDGE-SPECIMEN-1.163 IS DISTORTING EXCESSIVELY.
   ELEMENT BULDGE-SPECIMEN-1.163 IS DISTORTING EXCESSIVELY.
   ELEMENT BULDGE-SPECIMEN-1.164 IS DISTORTING EXCESSIVELY.
   ELEMENT BULDGE-SPECIMEN-1.164 IS DISTORTING EXCESSIVELY.
   ELEMENT BULDGE-SPECIMEN-1.165 IS DISTORTING EXCESSIVELY.
   ELEMENT BULDGE-SPECIMEN-1.167 IS DISTORTING EXCESSIVELY.
   ELEMENT BULDGE-SPECIMEN-1.167 IS DISTORTING EXCESSIVELY.
   ELEMENT BULDGE-SPECIMEN-1.167 IS DISTORTING EXCESSIVELY.
   ELEMENT BULDGE-SPECIMEN-1.168 IS DISTORTING EXCESSIVELY.
   ELEMENT BULDGE-SPECIMEN-1.169 IS DISTORTING EXCESSIVELY.
   ELEMENT BULDGE-SPECIMEN-1.169 IS DISTORTING EXCESSIVELY.
   ELEMENT BULDGE-SPECIMEN-1.169 IS DISTORTING EXCESSIVELY.
   ELEMENT BULDGE-SPECIMEN-1.171 IS DISTORTING EXCESSIVELY.
   ELEMENT BULDGE-SPECIMEN-1.171 IS DISTORTING EXCESSIVELY.
   ELEMENT BULDGE-SPECIMEN-1.171 IS DISTORTING EXCESSIVELY.
   ELEMENT BULDGE-SPECIMEN-1.172 IS DISTORTING EXCESSIVELY.
   ELEMENT BULDGE-SPECIMEN-1.172 IS DISTORTING EXCESSIVELY.
   ELEMENT BULDGE-SPECIMEN-1.173 IS DISTORTING EXCESSIVELY.
   ELEMENT BULDGE-SPECIMEN-1.174 IS DISTORTING EXCESSIVELY.
   ELEMENT BULDGE-SPECIMEN-1.174 IS DISTORTING EXCESSIVELY.
   ELEMENT BULDGE-SPECIMEN-1.175 IS DISTORTING EXCESSIVELY.
   ELEMENT BULDGE-SPECIMEN-1.175 IS DISTORTING EXCESSIVELY.
   ELEMENT BULDGE-SPECIMEN-1.175 IS DISTORTING EXCESSIVELY.
   ELEMENT BULDGE-SPECIMEN-1.176 IS DISTORTING EXCESSIVELY.
   ELEMENT BULDGE-SPECIMEN-1.177 IS DISTORTING EXCESSIVELY.
   ELEMENT BULDGE-SPECIMEN-1.178 IS DISTORTING EXCESSIVELY.
   ELEMENT BULDGE-SPECIMEN-1.178 IS DISTORTING EXCESSIVELY.
   ELEMENT BULDGE-SPECIMEN-1.179 IS DISTORTING EXCESSIVELY.
   ELEMENT BULDGE-SPECIMEN-1.179 IS DISTORTING EXCESSIVELY.
   ELEMENT BULDGE-SPECIMEN-1.179 IS DISTORTING EXCESSIVELY.
   ELEMENT BULDGE-SPECIMEN-1.179 IS DISTORTING EXCESSIVELY.
   ELEMENT BULDGE-SPECIMEN-1.180 IS DISTORTING EXCESSIVELY.
   ELEMENT BULDGE-SPECIMEN-1.180 IS DISTORTING EXCESSIVELY.
   ELEMENT BULDGE-SPECIMEN-1.181 IS DISTORTING EXCESSIVELY.
   ELEMENT BULDGE-SPECIMEN-1.181 IS DISTORTING EXCESSIVELY.
   ELEMENT BULDGE-SPECIMEN-1.182 IS DISTORTING EXCESSIVELY.
   ELEMENT BULDGE-SPECIMEN-1.182 IS DISTORTING EXCESSIVELY.
   ELEMENT BULDGE-SPECIMEN-1.183 IS DISTORTING EXCESSIVELY.
   ELEMENT BULDGE-SPECIMEN-1.183 IS DISTORTING EXCESSIVELY.
   ELEMENT BULDGE-SPECIMEN-1.183 IS DISTORTING EXCESSIVELY.
   ELEMENT BULDGE-SPECIMEN-1.184 IS DISTORTING EXCESSIVELY.
   ELEMENT BULDGE-SPECIMEN-1.185 IS DISTORTING EXCESSIVELY.
   ELEMENT BULDGE-SPECIMEN-1.186 IS DISTORTING EXCESSIVELY.
   ELEMENT BULDGE-SPECIMEN-1.186 IS DISTORTING EXCESSIVELY.
   ELEMENT BULDGE-SPECIMEN-1.187 IS DISTORTING EXCESSIVELY.
   ELEMENT BULDGE-SPECIMEN-1.187 IS DISTORTING EXCESSIVELY.
   ELEMENT BULDGE-SPECIMEN-1.187 IS DISTORTING EXCESSIVELY.
   ELEMENT BULDGE-SPECIMEN-1.187 IS DISTORTING EXCESSIVELY.
   ELEMENT BULDGE-SPECIMEN-1.188 IS DISTORTING EXCESSIVELY.
   ELEMENT BULDGE-SPECIMEN-1.188 IS DISTORTING EXCESSIVELY.
   ELEMENT BULDGE-SPECIMEN-1.189 IS DISTORTING EXCESSIVELY.
   ELEMENT BULDGE-SPECIMEN-1.189 IS DISTORTING EXCESSIVELY.
   ELEMENT BULDGE-SPECIMEN-1.190 IS DISTORTING EXCESSIVELY.
   ELEMENT BULDGE-SPECIMEN-1.191 IS DISTORTING EXCESSIVELY.
   ELEMENT BULDGE-SPECIMEN-1.192 IS DISTORTING EXCESSIVELY.
   ELEMENT BULDGE-SPECIMEN-1.192 IS DISTORTING EXCESSIVELY.
   ELEMENT BULDGE-SPECIMEN-1.192 IS DISTORTING EXCESSIVELY.
   ELEMENT BULDGE-SPECIMEN-1.192 IS DISTORTING EXCESSIVELY.
   ELEMENT BULDGE-SPECIMEN-1.193 IS DISTORTING EXCESSIVELY.
   ELEMENT BULDGE-SPECIMEN-1.193 IS DISTORTING EXCESSIVELY.
   ELEMENT BULDGE-SPECIMEN-1.195 IS DISTORTING EXCESSIVELY.
   ELEMENT BULDGE-SPECIMEN-1.196 IS DISTORTING EXCESSIVELY.
   ELEMENT BULDGE-SPECIMEN-1.196 IS DISTORTING EXCESSIVELY.
   ELEMENT BULDGE-SPECIMEN-1.196 IS DISTORTING EXCESSIVELY.
   ELEMENT BULDGE-SPECIMEN-1.196 IS DISTORTING EXCESSIVELY.
   ELEMENT BULDGE-SPECIMEN-1.197 IS DISTORTING EXCESSIVELY.
   ELEMENT BULDGE-SPECIMEN-1.197 IS DISTORTING EXCESSIVELY.
   ELEMENT BULDGE-SPECIMEN-1.197 IS DISTORTING EXCESSIVELY.
   ELEMENT BULDGE-SPECIMEN-1.197 IS DISTORTING EXCESSIVELY.
   ELEMENT BULDGE-SPECIMEN-1.198 IS DISTORTING EXCESSIVELY.
   ELEMENT BULDGE-SPECIMEN-1.198 IS DISTORTING EXCESSIVELY.
   ELEMENT BULDGE-SPECIMEN-1.198 IS DISTORTING EXCESSIVELY.
   ELEMENT BULDGE-SPECIMEN-1.198 IS DISTORTING EXCESSIVELY.
   ELEMENT BULDGE-SPECIMEN-1.199 IS DISTORTING EXCESSIVELY.
   ELEMENT BULDGE-SPECIMEN-1.200 IS DISTORTING EXCESSIVELY.
   ELEMENT BULDGE-SPECIMEN-1.200 IS DISTORTING EXCESSIVELY.
   ELEMENT BULDGE-SPECIMEN-1.200 IS DISTORTING EXCESSIVELY.
   ELEMENT BULDGE-SPECIMEN-1.200 IS DISTORTING EXCESSIVELY.
   ELEMENT BULDGE-SPECIMEN-1.201 IS DISTORTING EXCESSIVELY.
   ELEMENT BULDGE-SPECIMEN-1.201 IS DISTORTING EXCESSIVELY.
   ELEMENT BULDGE-SPECIMEN-1.201 IS DISTORTING EXCESSIVELY.
   ELEMENT BULDGE-SPECIMEN-1.201 IS DISTORTING EXCESSIVELY.
   ELEMENT BULDGE-SPECIMEN-1.202 IS DISTORTING EXCESSIVELY.
   ELEMENT BULDGE-SPECIMEN-1.202 IS DISTORTING EXCESSIVELY.
   ELEMENT BULDGE-SPECIMEN-1.203 IS DISTORTING EXCESSIVELY.
   ELEMENT BULDGE-SPECIMEN-1.203 IS DISTORTING EXCESSIVELY.
   ELEMENT BULDGE-SPECIMEN-1.204 IS DISTORTING EXCESSIVELY.
   ELEMENT BULDGE-SPECIMEN-1.204 IS DISTORTING EXCESSIVELY.
   ELEMENT BULDGE-SPECIMEN-1.205 IS DISTORTING EXCESSIVELY.
   ELEMENT BULDGE-SPECIMEN-1.205 IS DISTORTING EXCESSIVELY.
   ELEMENT BULDGE-SPECIMEN-1.206 IS DISTORTING EXCESSIVELY.
   ELEMENT BULDGE-SPECIMEN-1.207 IS DISTORTING EXCESSIVELY.
   ELEMENT BULDGE-SPECIMEN-1.207 IS DISTORTING EXCESSIVELY.
   ELEMENT BULDGE-SPECIMEN-1.207 IS DISTORTING EXCESSIVELY.
   ELEMENT BULDGE-SPECIMEN-1.1657 IS DISTORTING EXCESSIVELY.
   ELEMENT BULDGE-SPECIMEN-1.1658 IS DISTORTING EXCESSIVELY.
   ELEMENT BULDGE-SPECIMEN-1.1658 IS DISTORTING EXCESSIVELY.
   ELEMENT BULDGE-SPECIMEN-1.1658 IS DISTORTING EXCESSIVELY.
   ELEMENT BULDGE-SPECIMEN-1.1658 IS DISTORTING EXCESSIVELY.
   ELEMENT BULDGE-SPECIMEN-1.1659 IS DISTORTING EXCESSIVELY.
   ELEMENT BULDGE-SPECIMEN-1.1659 IS DISTORTING EXCESSIVELY.
   ELEMENT BULDGE-SPECIMEN-1.1660 IS DISTORTING EXCESSIVELY.
   ELEMENT BULDGE-SPECIMEN-1.1661 IS DISTORTING EXCESSIVELY.
   ELEMENT BULDGE-SPECIMEN-1.1661 IS DISTORTING EXCESSIVELY.
   ELEMENT BULDGE-SPECIMEN-1.1662 IS DISTORTING EXCESSIVELY.
   ELEMENT BULDGE-SPECIMEN-1.1663 IS DISTORTING EXCESSIVELY.
   ELEMENT BULDGE-SPECIMEN-1.1663 IS DISTORTING EXCESSIVELY.
   ELEMENT BULDGE-SPECIMEN-1.1663 IS DISTORTING EXCESSIVELY.
   ELEMENT BULDGE-SPECIMEN-1.1664 IS DISTORTING EXCESSIVELY.
   ELEMENT BULDGE-SPECIMEN-1.1664 IS DISTORTING EXCESSIVELY.
   ELEMENT BULDGE-SPECIMEN-1.1664 IS DISTORTING EXCESSIVELY.
   ELEMENT BULDGE-SPECIMEN-1.1665 IS DISTORTING EXCESSIVELY.
   ELEMENT BULDGE-SPECIMEN-1.1665 IS DISTORTING EXCESSIVELY.
   ELEMENT BULDGE-SPECIMEN-1.1667 IS DISTORTING EXCESSIVELY.
   ELEMENT BULDGE-SPECIMEN-1.1667 IS DISTORTING EXCESSIVELY.
   ELEMENT BULDGE-SPECIMEN-1.1668 IS DISTORTING EXCESSIVELY.
   ELEMENT BULDGE-SPECIMEN-1.1668 IS DISTORTING EXCESSIVELY.
   ELEMENT BULDGE-SPECIMEN-1.1668 IS DISTORTING EXCESSIVELY.
   ELEMENT BULDGE-SPECIMEN-1.1669 IS DISTORTING EXCESSIVELY.
   ELEMENT BULDGE-SPECIMEN-1.1670 IS DISTORTING EXCESSIVELY.
   ELEMENT BULDGE-SPECIMEN-1.1670 IS DISTORTING EXCESSIVELY.
   ELEMENT BULDGE-SPECIMEN-1.1671 IS DISTORTING EXCESSIVELY.
   ELEMENT BULDGE-SPECIMEN-1.1671 IS DISTORTING EXCESSIVELY.
   ELEMENT BULDGE-SPECIMEN-1.1672 IS DISTORTING EXCESSIVELY.
   ELEMENT BULDGE-SPECIMEN-1.1672 IS DISTORTING EXCESSIVELY.
   ELEMENT BULDGE-SPECIMEN-1.1673 IS DISTORTING EXCESSIVELY.
   ELEMENT BULDGE-SPECIMEN-1.1673 IS DISTORTING EXCESSIVELY.
   ELEMENT BULDGE-SPECIMEN-1.1674 IS DISTORTING EXCESSIVELY.
   ELEMENT BULDGE-SPECIMEN-1.1675 IS DISTORTING EXCESSIVELY.
   ELEMENT BULDGE-SPECIMEN-1.1675 IS DISTORTING EXCESSIVELY.
   ELEMENT BULDGE-SPECIMEN-1.1675 IS DISTORTING EXCESSIVELY.
   ELEMENT BULDGE-SPECIMEN-1.1675 IS DISTORTING EXCESSIVELY.
   ELEMENT BULDGE-SPECIMEN-1.1676 IS DISTORTING EXCESSIVELY.
   ELEMENT BULDGE-SPECIMEN-1.1676 IS DISTORTING EXCESSIVELY.
   ELEMENT BULDGE-SPECIMEN-1.1676 IS DISTORTING EXCESSIVELY.
   ELEMENT BULDGE-SPECIMEN-1.1677 IS DISTORTING EXCESSIVELY.
   ELEMENT BULDGE-SPECIMEN-1.1677 IS DISTORTING EXCESSIVELY.
   ELEMENT BULDGE-SPECIMEN-1.1677 IS DISTORTING EXCESSIVELY.
   ELEMENT BULDGE-SPECIMEN-1.1677 IS DISTORTING EXCESSIVELY.
   ELEMENT BULDGE-SPECIMEN-1.1678 IS DISTORTING EXCESSIVELY.
   ELEMENT BULDGE-SPECIMEN-1.1678 IS DISTORTING EXCESSIVELY.
   ELEMENT BULDGE-SPECIMEN-1.1678 IS DISTORTING EXCESSIVELY.
   ELEMENT BULDGE-SPECIMEN-1.1678 IS DISTORTING EXCESSIVELY.
   ELEMENT BULDGE-SPECIMEN-1.1679 IS DISTORTING EXCESSIVELY.
   ELEMENT BULDGE-SPECIMEN-1.1679 IS DISTORTING EXCESSIVELY.
   ELEMENT BULDGE-SPECIMEN-1.1679 IS DISTORTING EXCESSIVELY.
   ELEMENT BULDGE-SPECIMEN-1.1680 IS DISTORTING EXCESSIVELY.
   ELEMENT BULDGE-SPECIMEN-1.1681 IS DISTORTING EXCESSIVELY.
   ELEMENT BULDGE-SPECIMEN-1.1681 IS DISTORTING EXCESSIVELY.
   ELEMENT BULDGE-SPECIMEN-1.1681 IS DISTORTING EXCESSIVELY.
   ELEMENT BULDGE-SPECIMEN-1.1683 IS DISTORTING EXCESSIVELY.
   ELEMENT BULDGE-SPECIMEN-1.1685 IS DISTORTING EXCESSIVELY.
   ELEMENT BULDGE-SPECIMEN-1.1685 IS DISTORTING EXCESSIVELY.
   ELEMENT BULDGE-SPECIMEN-1.1686 IS DISTORTING EXCESSIVELY.
   ELEMENT BULDGE-SPECIMEN-1.1686 IS DISTORTING EXCESSIVELY.
   ELEMENT BULDGE-SPECIMEN-1.1687 IS DISTORTING EXCESSIVELY.
   ELEMENT BULDGE-SPECIMEN-1.1687 IS DISTORTING EXCESSIVELY.
   ELEMENT BULDGE-SPECIMEN-1.1687 IS DISTORTING EXCESSIVELY.
   ELEMENT BULDGE-SPECIMEN-1.1688 IS DISTORTING EXCESSIVELY.
   ELEMENT BULDGE-SPECIMEN-1.1688 IS DISTORTING EXCESSIVELY.
   ELEMENT BULDGE-SPECIMEN-1.1688 IS DISTORTING EXCESSIVELY.
   ELEMENT BULDGE-SPECIMEN-1.1688 IS DISTORTING EXCESSIVELY.
   ELEMENT BULDGE-SPECIMEN-1.1689 IS DISTORTING EXCESSIVELY.
   ELEMENT BULDGE-SPECIMEN-1.1689 IS DISTORTING EXCESSIVELY.
   ELEMENT BULDGE-SPECIMEN-1.1689 IS DISTORTING EXCESSIVELY.
   ELEMENT BULDGE-SPECIMEN-1.1690 IS DISTORTING EXCESSIVELY.
   ELEMENT BULDGE-SPECIMEN-1.1690 IS DISTORTING EXCESSIVELY.
   ELEMENT BULDGE-SPECIMEN-1.1691 IS DISTORTING EXCESSIVELY.
   ELEMENT BULDGE-SPECIMEN-1.1691 IS DISTORTING EXCESSIVELY.
   ELEMENT BULDGE-SPECIMEN-1.1692 IS DISTORTING EXCESSIVELY.
   ELEMENT BULDGE-SPECIMEN-1.1692 IS DISTORTING EXCESSIVELY.
   ELEMENT BULDGE-SPECIMEN-1.1693 IS DISTORTING EXCESSIVELY.
   ELEMENT BULDGE-SPECIMEN-1.1693 IS DISTORTING EXCESSIVELY.
   ELEMENT BULDGE-SPECIMEN-1.1693 IS DISTORTING EXCESSIVELY.
   ELEMENT BULDGE-SPECIMEN-1.1694 IS DISTORTING EXCESSIVELY.
   ELEMENT BULDGE-SPECIMEN-1.1694 IS DISTORTING EXCESSIVELY.
   ELEMENT BULDGE-SPECIMEN-1.1695 IS DISTORTING EXCESSIVELY.
   ELEMENT BULDGE-SPECIMEN-1.1695 IS DISTORTING EXCESSIVELY.
   ELEMENT BULDGE-SPECIMEN-1.1695 IS DISTORTING EXCESSIVELY.
   ELEMENT BULDGE-SPECIMEN-1.1696 IS DISTORTING EXCESSIVELY.
   ELEMENT BULDGE-SPECIMEN-1.1696 IS DISTORTING EXCESSIVELY.
   ELEMENT BULDGE-SPECIMEN-1.1696 IS DISTORTING EXCESSIVELY.
   ELEMENT BULDGE-SPECIMEN-1.1697 IS DISTORTING EXCESSIVELY.
   ELEMENT BULDGE-SPECIMEN-1.1697 IS DISTORTING EXCESSIVELY.
   ELEMENT BULDGE-SPECIMEN-1.1698 IS DISTORTING EXCESSIVELY.
   ELEMENT BULDGE-SPECIMEN-1.1699 IS DISTORTING EXCESSIVELY.
   ELEMENT BULDGE-SPECIMEN-1.1699 IS DISTORTING EXCESSIVELY.
   ELEMENT BULDGE-SPECIMEN-1.1699 IS DISTORTING EXCESSIVELY.
   ELEMENT BULDGE-SPECIMEN-1.1699 IS DISTORTING EXCESSIVELY.
   ELEMENT BULDGE-SPECIMEN-1.1700 IS DISTORTING EXCESSIVELY.
   ELEMENT BULDGE-SPECIMEN-1.1700 IS DISTORTING EXCESSIVELY.
   ELEMENT BULDGE-SPECIMEN-1.1700 IS DISTORTING EXCESSIVELY.
   ELEMENT BULDGE-SPECIMEN-1.1702 IS DISTORTING EXCESSIVELY.
   ELEMENT BULDGE-SPECIMEN-1.1702 IS DISTORTING EXCESSIVELY.
   ELEMENT BULDGE-SPECIMEN-1.1703 IS DISTORTING EXCESSIVELY.
   ELEMENT BULDGE-SPECIMEN-1.1703 IS DISTORTING EXCESSIVELY.
   ELEMENT BULDGE-SPECIMEN-1.1704 IS DISTORTING EXCESSIVELY.
   ELEMENT BULDGE-SPECIMEN-1.1704 IS DISTORTING EXCESSIVELY.
   ELEMENT BULDGE-SPECIMEN-1.1705 IS DISTORTING EXCESSIVELY.
   ELEMENT BULDGE-SPECIMEN-1.1705 IS DISTORTING EXCESSIVELY.
   ELEMENT BULDGE-SPECIMEN-1.1705 IS DISTORTING EXCESSIVELY.
   ELEMENT BULDGE-SPECIMEN-1.1706 IS DISTORTING EXCESSIVELY.
   ELEMENT BULDGE-SPECIMEN-1.1706 IS DISTORTING EXCESSIVELY.
   ELEMENT BULDGE-SPECIMEN-1.1706 IS DISTORTING EXCESSIVELY.
   ELEMENT BULDGE-SPECIMEN-1.1707 IS DISTORTING EXCESSIVELY.
   ELEMENT BULDGE-SPECIMEN-1.1707 IS DISTORTING EXCESSIVELY.
   ELEMENT BULDGE-SPECIMEN-1.1707 IS DISTORTING EXCESSIVELY.
   ELEMENT BULDGE-SPECIMEN-1.1708 IS DISTORTING EXCESSIVELY.
   ELEMENT BULDGE-SPECIMEN-1.1708 IS DISTORTING EXCESSIVELY.
   ELEMENT BULDGE-SPECIMEN-1.1709 IS DISTORTING EXCESSIVELY.
   ELEMENT BULDGE-SPECIMEN-1.1711 IS DISTORTING EXCESSIVELY.
   ELEMENT BULDGE-SPECIMEN-1.1711 IS DISTORTING EXCESSIVELY.
   ELEMENT BULDGE-SPECIMEN-1.1711 IS DISTORTING EXCESSIVELY.
   ELEMENT BULDGE-SPECIMEN-1.1712 IS DISTORTING EXCESSIVELY.
   ELEMENT BULDGE-SPECIMEN-1.1713 IS DISTORTING EXCESSIVELY.
   ELEMENT BULDGE-SPECIMEN-1.1714 IS DISTORTING EXCESSIVELY.
   ELEMENT BULDGE-SPECIMEN-1.1714 IS DISTORTING EXCESSIVELY.
   ELEMENT BULDGE-SPECIMEN-1.1715 IS DISTORTING EXCESSIVELY.
   ELEMENT BULDGE-SPECIMEN-1.1715 IS DISTORTING EXCESSIVELY.
   ELEMENT BULDGE-SPECIMEN-1.1715 IS DISTORTING EXCESSIVELY.
   ELEMENT BULDGE-SPECIMEN-1.1715 IS DISTORTING EXCESSIVELY.
   ELEMENT BULDGE-SPECIMEN-1.1716 IS DISTORTING EXCESSIVELY.
   ELEMENT BULDGE-SPECIMEN-1.1716 IS DISTORTING EXCESSIVELY.
   ELEMENT BULDGE-SPECIMEN-1.1717 IS DISTORTING EXCESSIVELY.
   ELEMENT BULDGE-SPECIMEN-1.1718 IS DISTORTING EXCESSIVELY.
   ELEMENT BULDGE-SPECIMEN-1.1719 IS DISTORTING EXCESSIVELY.
   ELEMENT BULDGE-SPECIMEN-1.1719 IS DISTORTING EXCESSIVELY.
   ELEMENT BULDGE-SPECIMEN-1.1719 IS DISTORTING EXCESSIVELY.
   ELEMENT BULDGE-SPECIMEN-1.1720 IS DISTORTING EXCESSIVELY.
   ELEMENT BULDGE-SPECIMEN-1.1720 IS DISTORTING EXCESSIVELY.
   ELEMENT BULDGE-SPECIMEN-1.1721 IS DISTORTING EXCESSIVELY.
   ELEMENT BULDGE-SPECIMEN-1.1721 IS DISTORTING EXCESSIVELY.
   ELEMENT BULDGE-SPECIMEN-1.1721 IS DISTORTING EXCESSIVELY.
   ELEMENT BULDGE-SPECIMEN-1.1723 IS DISTORTING EXCESSIVELY.
   ELEMENT BULDGE-SPECIMEN-1.1723 IS DISTORTING EXCESSIVELY.
   ELEMENT BULDGE-SPECIMEN-1.1723 IS DISTORTING EXCESSIVELY.
   ELEMENT BULDGE-SPECIMEN-1.1724 IS DISTORTING EXCESSIVELY.
   ELEMENT BULDGE-SPECIMEN-1.1724 IS DISTORTING EXCESSIVELY.
   ELEMENT BULDGE-SPECIMEN-1.1725 IS DISTORTING EXCESSIVELY.
   ELEMENT BULDGE-SPECIMEN-1.1725 IS DISTORTING EXCESSIVELY.
   ELEMENT BULDGE-SPECIMEN-1.1726 IS DISTORTING EXCESSIVELY.
   ELEMENT BULDGE-SPECIMEN-1.1726 IS DISTORTING EXCESSIVELY.
   ELEMENT BULDGE-SPECIMEN-1.1727 IS DISTORTING EXCESSIVELY.
   ELEMENT BULDGE-SPECIMEN-1.1728 IS DISTORTING EXCESSIVELY.
   ELEMENT BULDGE-SPECIMEN-1.1729 IS DISTORTING EXCESSIVELY.
   ELEMENT BULDGE-SPECIMEN-1.1729 IS DISTORTING EXCESSIVELY.
   ELEMENT BULDGE-SPECIMEN-1.1730 IS DISTORTING EXCESSIVELY.
   ELEMENT BULDGE-SPECIMEN-1.1731 IS DISTORTING EXCESSIVELY.
   ELEMENT BULDGE-SPECIMEN-1.1732 IS DISTORTING EXCESSIVELY.
   ELEMENT BULDGE-SPECIMEN-1.1732 IS DISTORTING EXCESSIVELY.
   ELEMENT BULDGE-SPECIMEN-1.1733 IS DISTORTING EXCESSIVELY.
   ELEMENT BULDGE-SPECIMEN-1.1733 IS DISTORTING EXCESSIVELY.
   ELEMENT BULDGE-SPECIMEN-1.1734 IS DISTORTING EXCESSIVELY.
   ELEMENT BULDGE-SPECIMEN-1.1734 IS DISTORTING EXCESSIVELY.
   ELEMENT BULDGE-SPECIMEN-1.1734 IS DISTORTING EXCESSIVELY.
   ELEMENT BULDGE-SPECIMEN-1.1734 IS DISTORTING EXCESSIVELY.
   ELEMENT BULDGE-SPECIMEN-1.1735 IS DISTORTING EXCESSIVELY.
   ELEMENT BULDGE-SPECIMEN-1.1735 IS DISTORTING EXCESSIVELY.
   ELEMENT BULDGE-SPECIMEN-1.1738 IS DISTORTING EXCESSIVELY.
   ELEMENT BULDGE-SPECIMEN-1.1739 IS DISTORTING EXCESSIVELY.
   ELEMENT BULDGE-SPECIMEN-1.1741 IS DISTORTING EXCESSIVELY.
   ELEMENT BULDGE-SPECIMEN-1.1741 IS DISTORTING EXCESSIVELY.
   ELEMENT BULDGE-SPECIMEN-1.1741 IS DISTORTING EXCESSIVELY.
   ELEMENT BULDGE-SPECIMEN-1.1742 IS DISTORTING EXCESSIVELY.
   ELEMENT BULDGE-SPECIMEN-1.1742 IS DISTORTING EXCESSIVELY.
   ELEMENT BULDGE-SPECIMEN-1.1742 IS DISTORTING EXCESSIVELY.
   ELEMENT BULDGE-SPECIMEN-1.1742 IS DISTORTING EXCESSIVELY.
   ELEMENT BULDGE-SPECIMEN-1.1743 IS DISTORTING EXCESSIVELY.
   ELEMENT BULDGE-SPECIMEN-1.1743 IS DISTORTING EXCESSIVELY.
   ELEMENT BULDGE-SPECIMEN-1.1744 IS DISTORTING EXCESSIVELY.
   ELEMENT BULDGE-SPECIMEN-1.1744 IS DISTORTING EXCESSIVELY.
   ELEMENT BULDGE-SPECIMEN-1.1745 IS DISTORTING EXCESSIVELY.
   ELEMENT BULDGE-SPECIMEN-1.1745 IS DISTORTING EXCESSIVELY.
   ELEMENT BULDGE-SPECIMEN-1.1745 IS DISTORTING EXCESSIVELY.
   ELEMENT BULDGE-SPECIMEN-1.1746 IS DISTORTING EXCESSIVELY.
   ELEMENT BULDGE-SPECIMEN-1.1746 IS DISTORTING EXCESSIVELY.
   ELEMENT BULDGE-SPECIMEN-1.1746 IS DISTORTING EXCESSIVELY.
   ELEMENT BULDGE-SPECIMEN-1.1747 IS DISTORTING EXCESSIVELY.
   ELEMENT BULDGE-SPECIMEN-1.1747 IS DISTORTING EXCESSIVELY.
   ELEMENT BULDGE-SPECIMEN-1.1747 IS DISTORTING EXCESSIVELY.
   ELEMENT BULDGE-SPECIMEN-1.1747 IS DISTORTING EXCESSIVELY.
   ELEMENT BULDGE-SPECIMEN-1.1748 IS DISTORTING EXCESSIVELY.
   ELEMENT BULDGE-SPECIMEN-1.1749 IS DISTORTING EXCESSIVELY.
   ELEMENT BULDGE-SPECIMEN-1.1749 IS DISTORTING EXCESSIVELY.
   ELEMENT BULDGE-SPECIMEN-1.1749 IS DISTORTING EXCESSIVELY.
   ELEMENT BULDGE-SPECIMEN-1.1749 IS DISTORTING EXCESSIVELY.
   ELEMENT BULDGE-SPECIMEN-1.1750 IS DISTORTING EXCESSIVELY.
   ELEMENT BULDGE-SPECIMEN-1.1750 IS DISTORTING EXCESSIVELY.
   ELEMENT BULDGE-SPECIMEN-1.1750 IS DISTORTING EXCESSIVELY.
   ELEMENT BULDGE-SPECIMEN-1.1750 IS DISTORTING EXCESSIVELY.
   ELEMENT BULDGE-SPECIMEN-1.1751 IS DISTORTING EXCESSIVELY.
   ELEMENT BULDGE-SPECIMEN-1.1752 IS DISTORTING EXCESSIVELY.
   ELEMENT BULDGE-SPECIMEN-1.1752 IS DISTORTING EXCESSIVELY.
   ELEMENT BULDGE-SPECIMEN-1.1752 IS DISTORTING EXCESSIVELY.
   ELEMENT BULDGE-SPECIMEN-1.1753 IS DISTORTING EXCESSIVELY.
   ELEMENT BULDGE-SPECIMEN-1.1753 IS DISTORTING EXCESSIVELY.
   ELEMENT BULDGE-SPECIMEN-1.1754 IS DISTORTING EXCESSIVELY.
   ELEMENT BULDGE-SPECIMEN-1.1754 IS DISTORTING EXCESSIVELY.
   ELEMENT BULDGE-SPECIMEN-1.1755 IS DISTORTING EXCESSIVELY.
   ELEMENT BULDGE-SPECIMEN-1.1755 IS DISTORTING EXCESSIVELY.
   ELEMENT BULDGE-SPECIMEN-1.1755 IS DISTORTING EXCESSIVELY.
   ELEMENT BULDGE-SPECIMEN-1.1755 IS DISTORTING EXCESSIVELY.
   ELEMENT BULDGE-SPECIMEN-1.1757 IS DISTORTING EXCESSIVELY.
   ELEMENT BULDGE-SPECIMEN-1.1757 IS DISTORTING EXCESSIVELY.
   ELEMENT BULDGE-SPECIMEN-1.1757 IS DISTORTING EXCESSIVELY.
   ELEMENT BULDGE-SPECIMEN-1.1758 IS DISTORTING EXCESSIVELY.
   ELEMENT BULDGE-SPECIMEN-1.1758 IS DISTORTING EXCESSIVELY.
   ELEMENT BULDGE-SPECIMEN-1.1760 IS DISTORTING EXCESSIVELY.
   ELEMENT BULDGE-SPECIMEN-1.1760 IS DISTORTING EXCESSIVELY.
   ELEMENT BULDGE-SPECIMEN-1.1761 IS DISTORTING EXCESSIVELY.
   ELEMENT BULDGE-SPECIMEN-1.1761 IS DISTORTING EXCESSIVELY.
   ELEMENT BULDGE-SPECIMEN-1.1762 IS DISTORTING EXCESSIVELY.
   ELEMENT BULDGE-SPECIMEN-1.1762 IS DISTORTING EXCESSIVELY.
   ELEMENT BULDGE-SPECIMEN-1.1762 IS DISTORTING EXCESSIVELY.
   ELEMENT BULDGE-SPECIMEN-1.1762 IS DISTORTING EXCESSIVELY.
   ELEMENT BULDGE-SPECIMEN-1.1764 IS DISTORTING EXCESSIVELY.
   ELEMENT BULDGE-SPECIMEN-1.1765 IS DISTORTING EXCESSIVELY.
   ELEMENT BULDGE-SPECIMEN-1.1765 IS DISTORTING EXCESSIVELY.
   ELEMENT BULDGE-SPECIMEN-1.1766 IS DISTORTING EXCESSIVELY.
   ELEMENT BULDGE-SPECIMEN-1.1766 IS DISTORTING EXCESSIVELY.
   ELEMENT BULDGE-SPECIMEN-1.1767 IS DISTORTING EXCESSIVELY.
   ELEMENT BULDGE-SPECIMEN-1.1768 IS DISTORTING EXCESSIVELY.
   ELEMENT BULDGE-SPECIMEN-1.1770 IS DISTORTING EXCESSIVELY.
   ELEMENT BULDGE-SPECIMEN-1.1770 IS DISTORTING EXCESSIVELY.
   ELEMENT BULDGE-SPECIMEN-1.1770 IS DISTORTING EXCESSIVELY.
   ELEMENT BULDGE-SPECIMEN-1.1770 IS DISTORTING EXCESSIVELY.
   ELEMENT BULDGE-SPECIMEN-1.1771 IS DISTORTING EXCESSIVELY.
   ELEMENT BULDGE-SPECIMEN-1.1772 IS DISTORTING EXCESSIVELY.
   ELEMENT BULDGE-SPECIMEN-1.1772 IS DISTORTING EXCESSIVELY.
   ELEMENT BULDGE-SPECIMEN-1.1773 IS DISTORTING EXCESSIVELY.
   ELEMENT BULDGE-SPECIMEN-1.1773 IS DISTORTING EXCESSIVELY.
   ELEMENT BULDGE-SPECIMEN-1.1773 IS DISTORTING EXCESSIVELY.
   ELEMENT BULDGE-SPECIMEN-1.1774 IS DISTORTING EXCESSIVELY.
   ELEMENT BULDGE-SPECIMEN-1.1775 IS DISTORTING EXCESSIVELY.
   ELEMENT BULDGE-SPECIMEN-1.1775 IS DISTORTING EXCESSIVELY.
   ELEMENT BULDGE-SPECIMEN-1.1776 IS DISTORTING EXCESSIVELY.
   ELEMENT BULDGE-SPECIMEN-1.1776 IS DISTORTING EXCESSIVELY.
   ELEMENT BULDGE-SPECIMEN-1.1776 IS DISTORTING EXCESSIVELY.
   ELEMENT BULDGE-SPECIMEN-1.1777 IS DISTORTING EXCESSIVELY.
   ELEMENT BULDGE-SPECIMEN-1.1777 IS DISTORTING EXCESSIVELY.
   ELEMENT BULDGE-SPECIMEN-1.1777 IS DISTORTING EXCESSIVELY.
   ELEMENT BULDGE-SPECIMEN-1.1779 IS DISTORTING EXCESSIVELY.
   ELEMENT BULDGE-SPECIMEN-1.1779 IS DISTORTING EXCESSIVELY.
   ELEMENT BULDGE-SPECIMEN-1.1780 IS DISTORTING EXCESSIVELY.
   ELEMENT BULDGE-SPECIMEN-1.1780 IS DISTORTING EXCESSIVELY.
   ELEMENT BULDGE-SPECIMEN-1.1781 IS DISTORTING EXCESSIVELY.
   ELEMENT BULDGE-SPECIMEN-1.1781 IS DISTORTING EXCESSIVELY.
   ELEMENT BULDGE-SPECIMEN-1.1782 IS DISTORTING EXCESSIVELY.
   ELEMENT BULDGE-SPECIMEN-1.1784 IS DISTORTING EXCESSIVELY.
   ELEMENT BULDGE-SPECIMEN-1.1784 IS DISTORTING EXCESSIVELY.
   ELEMENT BULDGE-SPECIMEN-1.1785 IS DISTORTING EXCESSIVELY.
   ELEMENT BULDGE-SPECIMEN-1.1785 IS DISTORTING EXCESSIVELY.
   ELEMENT BULDGE-SPECIMEN-1.1786 IS DISTORTING EXCESSIVELY.
   ELEMENT BULDGE-SPECIMEN-1.1786 IS DISTORTING EXCESSIVELY.
   ELEMENT BULDGE-SPECIMEN-1.1787 IS DISTORTING EXCESSIVELY.
   ELEMENT BULDGE-SPECIMEN-1.1787 IS DISTORTING EXCESSIVELY.
   ELEMENT BULDGE-SPECIMEN-1.1788 IS DISTORTING EXCESSIVELY.
   ELEMENT BULDGE-SPECIMEN-1.1789 IS DISTORTING EXCESSIVELY.
   ELEMENT BULDGE-SPECIMEN-1.1789 IS DISTORTING EXCESSIVELY.
   ELEMENT BULDGE-SPECIMEN-1.1789 IS DISTORTING EXCESSIVELY.
   ELEMENT BULDGE-SPECIMEN-1.1789 IS DISTORTING EXCESSIVELY.
   ELEMENT BULDGE-SPECIMEN-1.1790 IS DISTORTING EXCESSIVELY.
   ELEMENT BULDGE-SPECIMEN-1.1791 IS DISTORTING EXCESSIVELY.
   ELEMENT BULDGE-SPECIMEN-1.1791 IS DISTORTING EXCESSIVELY.
   ELEMENT BULDGE-SPECIMEN-1.1792 IS DISTORTING EXCESSIVELY.
   ELEMENT BULDGE-SPECIMEN-1.1792 IS DISTORTING EXCESSIVELY.
   ELEMENT BULDGE-SPECIMEN-1.1792 IS DISTORTING EXCESSIVELY.
   ELEMENT BULDGE-SPECIMEN-1.1792 IS DISTORTING EXCESSIVELY.
   ELEMENT BULDGE-SPECIMEN-1.1793 IS DISTORTING EXCESSIVELY.
   ELEMENT BULDGE-SPECIMEN-1.1794 IS DISTORTING EXCESSIVELY.
   ELEMENT BULDGE-SPECIMEN-1.1795 IS DISTORTING EXCESSIVELY.
   ELEMENT BULDGE-SPECIMEN-1.1796 IS DISTORTING EXCESSIVELY.
   ELEMENT BULDGE-SPECIMEN-1.1797 IS DISTORTING EXCESSIVELY.
   ELEMENT BULDGE-SPECIMEN-1.1797 IS DISTORTING EXCESSIVELY.
   ELEMENT BULDGE-SPECIMEN-1.1797 IS DISTORTING EXCESSIVELY.
   ELEMENT BULDGE-SPECIMEN-1.1798 IS DISTORTING EXCESSIVELY.
   ELEMENT BULDGE-SPECIMEN-1.1799 IS DISTORTING EXCESSIVELY.
   ELEMENT BULDGE-SPECIMEN-1.1799 IS DISTORTING EXCESSIVELY.
   ELEMENT BULDGE-SPECIMEN-1.1801 IS DISTORTING EXCESSIVELY.
   ELEMENT BULDGE-SPECIMEN-1.1801 IS DISTORTING EXCESSIVELY.
   ELEMENT BULDGE-SPECIMEN-1.1801 IS DISTORTING EXCESSIVELY.
   ELEMENT BULDGE-SPECIMEN-1.1802 IS DISTORTING EXCESSIVELY.
   ELEMENT BULDGE-SPECIMEN-1.1802 IS DISTORTING EXCESSIVELY.
   ELEMENT BULDGE-SPECIMEN-1.1802 IS DISTORTING EXCESSIVELY.
   ELEMENT BULDGE-SPECIMEN-1.1803 IS DISTORTING EXCESSIVELY.
   ELEMENT BULDGE-SPECIMEN-1.1803 IS DISTORTING EXCESSIVELY.
   ELEMENT BULDGE-SPECIMEN-1.1805 IS DISTORTING EXCESSIVELY.
   ELEMENT BULDGE-SPECIMEN-1.1805 IS DISTORTING EXCESSIVELY.
   ELEMENT BULDGE-SPECIMEN-1.1806 IS DISTORTING EXCESSIVELY.
   ELEMENT BULDGE-SPECIMEN-1.1806 IS DISTORTING EXCESSIVELY.
   ELEMENT BULDGE-SPECIMEN-1.1807 IS DISTORTING EXCESSIVELY.
   ELEMENT BULDGE-SPECIMEN-1.1807 IS DISTORTING EXCESSIVELY.
   ELEMENT BULDGE-SPECIMEN-1.1807 IS DISTORTING EXCESSIVELY.
   ELEMENT BULDGE-SPECIMEN-1.1808 IS DISTORTING EXCESSIVELY.
   ELEMENT BULDGE-SPECIMEN-1.1808 IS DISTORTING EXCESSIVELY.
   ELEMENT BULDGE-SPECIMEN-1.1809 IS DISTORTING EXCESSIVELY.
   ELEMENT BULDGE-SPECIMEN-1.1810 IS DISTORTING EXCESSIVELY.
   ELEMENT BULDGE-SPECIMEN-1.1810 IS DISTORTING EXCESSIVELY.
   ELEMENT BULDGE-SPECIMEN-1.1811 IS DISTORTING EXCESSIVELY.
   ELEMENT BULDGE-SPECIMEN-1.1812 IS DISTORTING EXCESSIVELY.
   ELEMENT BULDGE-SPECIMEN-1.1812 IS DISTORTING EXCESSIVELY.
   ELEMENT BULDGE-SPECIMEN-1.1812 IS DISTORTING EXCESSIVELY.
   ELEMENT BULDGE-SPECIMEN-1.1812 IS DISTORTING EXCESSIVELY.
   ELEMENT BULDGE-SPECIMEN-1.1813 IS DISTORTING EXCESSIVELY.
   ELEMENT BULDGE-SPECIMEN-1.1813 IS DISTORTING EXCESSIVELY.
   ELEMENT BULDGE-SPECIMEN-1.1814 IS DISTORTING EXCESSIVELY.
   ELEMENT BULDGE-SPECIMEN-1.1814 IS DISTORTING EXCESSIVELY.
   ELEMENT BULDGE-SPECIMEN-1.1814 IS DISTORTING EXCESSIVELY.
   ELEMENT BULDGE-SPECIMEN-1.1815 IS DISTORTING EXCESSIVELY.
   ELEMENT BULDGE-SPECIMEN-1.1815 IS DISTORTING EXCESSIVELY.
   ELEMENT BULDGE-SPECIMEN-1.1815 IS DISTORTING EXCESSIVELY.
   ELEMENT BULDGE-SPECIMEN-1.1815 IS DISTORTING EXCESSIVELY.
   ELEMENT BULDGE-SPECIMEN-1.1816 IS DISTORTING EXCESSIVELY.
   ELEMENT BULDGE-SPECIMEN-1.1816 IS DISTORTING EXCESSIVELY.
   ELEMENT BULDGE-SPECIMEN-1.1816 IS DISTORTING EXCESSIVELY.
   ELEMENT BULDGE-SPECIMEN-1.1818 IS DISTORTING EXCESSIVELY.
   ELEMENT BULDGE-SPECIMEN-1.1818 IS DISTORTING EXCESSIVELY.
   ELEMENT BULDGE-SPECIMEN-1.1818 IS DISTORTING EXCESSIVELY.
   ELEMENT BULDGE-SPECIMEN-1.1819 IS DISTORTING EXCESSIVELY.
   ELEMENT BULDGE-SPECIMEN-1.1820 IS DISTORTING EXCESSIVELY.
   ELEMENT BULDGE-SPECIMEN-1.1820 IS DISTORTING EXCESSIVELY.
   ELEMENT BULDGE-SPECIMEN-1.1820 IS DISTORTING EXCESSIVELY.
   ELEMENT BULDGE-SPECIMEN-1.1820 IS DISTORTING EXCESSIVELY.
   ELEMENT BULDGE-SPECIMEN-1.1821 IS DISTORTING EXCESSIVELY.
   ELEMENT BULDGE-SPECIMEN-1.1821 IS DISTORTING EXCESSIVELY.
   ELEMENT BULDGE-SPECIMEN-1.1822 IS DISTORTING EXCESSIVELY.
   ELEMENT BULDGE-SPECIMEN-1.1822 IS DISTORTING EXCESSIVELY.
   ELEMENT BULDGE-SPECIMEN-1.1822 IS DISTORTING EXCESSIVELY.
   ELEMENT BULDGE-SPECIMEN-1.1822 IS DISTORTING EXCESSIVELY.
   ELEMENT BULDGE-SPECIMEN-1.1823 IS DISTORTING EXCESSIVELY.
   ELEMENT BULDGE-SPECIMEN-1.1823 IS DISTORTING EXCESSIVELY.
   ELEMENT BULDGE-SPECIMEN-1.1823 IS DISTORTING EXCESSIVELY.
   ELEMENT BULDGE-SPECIMEN-1.1824 IS DISTORTING EXCESSIVELY.
   ELEMENT BULDGE-SPECIMEN-1.1824 IS DISTORTING EXCESSIVELY.
   ELEMENT BULDGE-SPECIMEN-1.1824 IS DISTORTING EXCESSIVELY.
   ELEMENT BULDGE-SPECIMEN-1.1825 IS DISTORTING EXCESSIVELY.
   ELEMENT BULDGE-SPECIMEN-1.1825 IS DISTORTING EXCESSIVELY.
   ELEMENT BULDGE-SPECIMEN-1.1826 IS DISTORTING EXCESSIVELY.
   ELEMENT BULDGE-SPECIMEN-1.1826 IS DISTORTING EXCESSIVELY.
   ELEMENT BULDGE-SPECIMEN-1.1826 IS DISTORTING EXCESSIVELY.
   ELEMENT BULDGE-SPECIMEN-1.1827 IS DISTORTING EXCESSIVELY.
   ELEMENT BULDGE-SPECIMEN-1.1827 IS DISTORTING EXCESSIVELY.
   ELEMENT BULDGE-SPECIMEN-1.1827 IS DISTORTING EXCESSIVELY.
   ELEMENT BULDGE-SPECIMEN-1.1828 IS DISTORTING EXCESSIVELY.
   ELEMENT BULDGE-SPECIMEN-1.1828 IS DISTORTING EXCESSIVELY.
   ELEMENT BULDGE-SPECIMEN-1.1829 IS DISTORTING EXCESSIVELY.
   ELEMENT BULDGE-SPECIMEN-1.1829 IS DISTORTING EXCESSIVELY.
   ELEMENT BULDGE-SPECIMEN-1.1830 IS DISTORTING EXCESSIVELY.
   ELEMENT BULDGE-SPECIMEN-1.1830 IS DISTORTING EXCESSIVELY.
   ELEMENT BULDGE-SPECIMEN-1.1831 IS DISTORTING EXCESSIVELY.
   ELEMENT BULDGE-SPECIMEN-1.1832 IS DISTORTING EXCESSIVELY.
   ELEMENT BULDGE-SPECIMEN-1.1832 IS DISTORTING EXCESSIVELY.
   ELEMENT BULDGE-SPECIMEN-1.1832 IS DISTORTING EXCESSIVELY.
   ELEMENT BULDGE-SPECIMEN-1.1833 IS DISTORTING EXCESSIVELY.
   ELEMENT BULDGE-SPECIMEN-1.1833 IS DISTORTING EXCESSIVELY.
   ELEMENT BULDGE-SPECIMEN-1.1834 IS DISTORTING EXCESSIVELY.
   ELEMENT BULDGE-SPECIMEN-1.1834 IS DISTORTING EXCESSIVELY.
   ELEMENT BULDGE-SPECIMEN-1.1834 IS DISTORTING EXCESSIVELY.
   ELEMENT BULDGE-SPECIMEN-1.1835 IS DISTORTING EXCESSIVELY.
   ELEMENT BULDGE-SPECIMEN-1.1835 IS DISTORTING EXCESSIVELY.
   ELEMENT BULDGE-SPECIMEN-1.1835 IS DISTORTING EXCESSIVELY.
   ELEMENT BULDGE-SPECIMEN-1.1836 IS DISTORTING EXCESSIVELY.
   ELEMENT BULDGE-SPECIMEN-1.1836 IS DISTORTING EXCESSIVELY.
   ELEMENT BULDGE-SPECIMEN-1.1837 IS DISTORTING EXCESSIVELY.
   ELEMENT BULDGE-SPECIMEN-1.1838 IS DISTORTING EXCESSIVELY.
   ELEMENT BULDGE-SPECIMEN-1.1839 IS DISTORTING EXCESSIVELY.
   ELEMENT BULDGE-SPECIMEN-1.1839 IS DISTORTING EXCESSIVELY.
   ELEMENT BULDGE-SPECIMEN-1.1840 IS DISTORTING EXCESSIVELY.
   ELEMENT BULDGE-SPECIMEN-1.1840 IS DISTORTING EXCESSIVELY.
   ELEMENT BULDGE-SPECIMEN-1.1840 IS DISTORTING EXCESSIVELY.
   ELEMENT BULDGE-SPECIMEN-1.1842 IS DISTORTING EXCESSIVELY.
   ELEMENT BULDGE-SPECIMEN-1.1842 IS DISTORTING EXCESSIVELY.
   ELEMENT BULDGE-SPECIMEN-1.1843 IS DISTORTING EXCESSIVELY.
   ELEMENT BULDGE-SPECIMEN-1.1843 IS DISTORTING EXCESSIVELY.
   ELEMENT BULDGE-SPECIMEN-1.1843 IS DISTORTING EXCESSIVELY.
   ELEMENT BULDGE-SPECIMEN-1.1843 IS DISTORTING EXCESSIVELY.
   ELEMENT BULDGE-SPECIMEN-1.1844 IS DISTORTING EXCESSIVELY.
   ELEMENT BULDGE-SPECIMEN-1.1844 IS DISTORTING EXCESSIVELY.
   ELEMENT BULDGE-SPECIMEN-1.1844 IS DISTORTING EXCESSIVELY.
   ELEMENT BULDGE-SPECIMEN-1.1844 IS DISTORTING EXCESSIVELY.
   ELEMENT BULDGE-SPECIMEN-1.1845 IS DISTORTING EXCESSIVELY.
   ELEMENT BULDGE-SPECIMEN-1.1845 IS DISTORTING EXCESSIVELY.
   ELEMENT BULDGE-SPECIMEN-1.1845 IS DISTORTING EXCESSIVELY.
   ELEMENT BULDGE-SPECIMEN-1.1845 IS DISTORTING EXCESSIVELY.
   ELEMENT BULDGE-SPECIMEN-1.1846 IS DISTORTING EXCESSIVELY.
   ELEMENT BULDGE-SPECIMEN-1.1846 IS DISTORTING EXCESSIVELY.
   ELEMENT BULDGE-SPECIMEN-1.1846 IS DISTORTING EXCESSIVELY.
   ELEMENT BULDGE-SPECIMEN-1.1846 IS DISTORTING EXCESSIVELY.
   ELEMENT BULDGE-SPECIMEN-1.1847 IS DISTORTING EXCESSIVELY.
   ELEMENT BULDGE-SPECIMEN-1.1847 IS DISTORTING EXCESSIVELY.
   ELEMENT BULDGE-SPECIMEN-1.1847 IS DISTORTING EXCESSIVELY.
   ELEMENT BULDGE-SPECIMEN-1.1848 IS DISTORTING EXCESSIVELY.
   ELEMENT BULDGE-SPECIMEN-1.1850 IS DISTORTING EXCESSIVELY.
   ELEMENT BULDGE-SPECIMEN-1.1851 IS DISTORTING EXCESSIVELY.
   ELEMENT BULDGE-SPECIMEN-1.1852 IS DISTORTING EXCESSIVELY.
   ELEMENT BULDGE-SPECIMEN-1.1852 IS DISTORTING EXCESSIVELY.
   ELEMENT BULDGE-SPECIMEN-1.1852 IS DISTORTING EXCESSIVELY.
   ELEMENT BULDGE-SPECIMEN-1.1853 IS DISTORTING EXCESSIVELY.
   ELEMENT BULDGE-SPECIMEN-1.1853 IS DISTORTING EXCESSIVELY.
   ELEMENT BULDGE-SPECIMEN-1.1853 IS DISTORTING EXCESSIVELY.
   ELEMENT BULDGE-SPECIMEN-1.1853 IS DISTORTING EXCESSIVELY.
   ELEMENT BULDGE-SPECIMEN-1.1854 IS DISTORTING EXCESSIVELY.
[...]
   INSTANCE: BULDGE-SPECIMEN-1                                                               
          FORCE     EQUILIBRIUM NOT ACHIEVED WITHIN TOLERANCE.

  NUMBER OF EQUATIONS =    10911     NUMBER OF FLOATING PT. OPERATIONS =  9.38E+08

  USING THE DIRECT SOLVER WITH  10 PROCESSORS

     CHECK POINT   START OF SOLVER    

     CHECK POINT  END OF SOLVER       

       ELAPSED USER TIME (SEC)      =  0.32000    
       ELAPSED SYSTEM TIME (SEC)    =  2.00000E-02
       ELAPSED TOTAL CPU TIME (SEC) =  0.34000    
       ELAPSED WALLCLOCK TIME (SEC) =          0

               CONVERGENCE CHECKS FOR EQUILIBRIUM ITERATION     2


 AVERAGE FORCE                      0.562       TIME AVG. FORCE       0.484    
 LARGEST RESIDUAL FORCE             3.719E-02   AT NODE       2119   DOF  3
   INSTANCE: BULDGE-SPECIMEN-1                                                               
 LARGEST INCREMENT OF DISP.         6.306E-02   AT NODE          7   DOF  3
   INSTANCE: BULDGE-SPECIMEN-1                                                               
 LARGEST CORRECTION TO DISP.        0.102       AT NODE          7   DOF  3
   INSTANCE: BULDGE-SPECIMEN-1                                                               
          FORCE     EQUILIBRIUM NOT ACHIEVED WITHIN TOLERANCE.

  NUMBER OF EQUATIONS =    10911     NUMBER OF FLOATING PT. OPERATIONS =  9.38E+08

  USING THE DIRECT SOLVER WITH  10 PROCESSORS

     CHECK POINT   START OF SOLVER    

     CHECK POINT  END OF SOLVER       

       ELAPSED USER TIME (SEC)      =  0.32000    
       ELAPSED SYSTEM TIME (SEC)    =  3.00000E-02
       ELAPSED TOTAL CPU TIME (SEC) =  0.35000    
       ELAPSED WALLCLOCK TIME (SEC) =          0
 

 ***WARNING: THE SYSTEM MATRIX HAS 1 NEGATIVE EIGENVALUES.
             EXPLANATIONS ARE SUGGESTED AFTER THE FIRST OCCURRENCE OF THIS MESSAGE.

               CONVERGENCE CHECKS FOR EQUILIBRIUM ITERATION     3


 AVERAGE FORCE                      0.558       TIME AVG. FORCE       0.484    
 LARGEST RESIDUAL FORCE            -0.194       AT NODE       1053   DOF  3
   INSTANCE: BULDGE-SPECIMEN-1                                                               
 LARGEST INCREMENT OF DISP.        -0.168       AT NODE          7   DOF  3
   INSTANCE: BULDGE-SPECIMEN-1                                                               
 LARGEST CORRECTION TO DISP.       -0.231       AT NODE          7   DOF  3
   INSTANCE: BULDGE-SPECIMEN-1                                                               
          FORCE     EQUILIBRIUM NOT ACHIEVED WITHIN TOLERANCE.

  NUMBER OF EQUATIONS =    10911     NUMBER OF FLOATING PT. OPERATIONS =  9.38E+08

  USING THE DIRECT SOLVER WITH  10 PROCESSORS

     CHECK POINT   START OF SOLVER    

     CHECK POINT  END OF SOLVER       

       ELAPSED USER TIME (SEC)      =  0.33000    
       ELAPSED SYSTEM TIME (SEC)    =  2.00000E-02
       ELAPSED TOTAL CPU TIME (SEC) =  0.35000    
       ELAPSED WALLCLOCK TIME (SEC) =          0

               CONVERGENCE CHECKS FOR EQUILIBRIUM ITERATION     4


 AVERAGE FORCE                      0.560       TIME AVG. FORCE       0.484    
 LARGEST RESIDUAL FORCE             3.530E-02   AT NODE       2119   DOF  3
   INSTANCE: BULDGE-SPECIMEN-1                                                               
 LARGEST INCREMENT OF DISP.        -6.175E-02   AT NODE          7   DOF  3
   INSTANCE: BULDGE-SPECIMEN-1                                                               
 LARGEST CORRECTION TO DISP.        0.106       AT NODE          7   DOF  3
   INSTANCE: BULDGE-SPECIMEN-1                                                               
          FORCE     EQUILIBRIUM NOT ACHIEVED WITHIN TOLERANCE.

  NUMBER OF EQUATIONS =    10911     NUMBER OF FLOATING PT. OPERATIONS =  9.38E+08

  USING THE DIRECT SOLVER WITH  10 PROCESSORS

     CHECK POINT   START OF SOLVER    

     CHECK POINT  END OF SOLVER       

       ELAPSED USER TIME (SEC)      =  0.32000    
       ELAPSED SYSTEM TIME (SEC)    =  2.00000E-02
       ELAPSED TOTAL CPU TIME (SEC) =  0.34000    
       ELAPSED WALLCLOCK TIME (SEC) =          0

               CONVERGENCE CHECKS FOR EQUILIBRIUM ITERATION     5


 AVERAGE FORCE                      0.562       TIME AVG. FORCE       0.484    
 LARGEST RESIDUAL FORCE            -4.292E-02   AT NODE       1053   DOF  3
   INSTANCE: BULDGE-SPECIMEN-1                                                               
 LARGEST INCREMENT OF DISP.         4.331E-02   AT NODE          7   DOF  3
   INSTANCE: BULDGE-SPECIMEN-1                                                               
 LARGEST CORRECTION TO DISP.        0.105       AT NODE          7   DOF  3
   INSTANCE: BULDGE-SPECIMEN-1                                                               
          FORCE     EQUILIBRIUM NOT ACHIEVED WITHIN TOLERANCE.

  NUMBER OF EQUATIONS =    10911     NUMBER OF FLOATING PT. OPERATIONS =  9.38E+08

  USING THE DIRECT SOLVER WITH  10 PROCESSORS

     CHECK POINT   START OF SOLVER    

     CHECK POINT  END OF SOLVER       

       ELAPSED USER TIME (SEC)      =  0.34000    
       ELAPSED SYSTEM TIME (SEC)    =  1.00000E-02
       ELAPSED TOTAL CPU TIME (SEC) =  0.35000    
       ELAPSED WALLCLOCK TIME (SEC) =          0
 

 ***WARNING: THE SYSTEM MATRIX HAS 1 NEGATIVE EIGENVALUES.
             EXPLANATIONS ARE SUGGESTED AFTER THE FIRST OCCURRENCE OF THIS MESSAGE.

               CONVERGENCE CHECKS FOR EQUILIBRIUM ITERATION     6


 AVERAGE FORCE                      0.553       TIME AVG. FORCE       0.483    
 LARGEST RESIDUAL FORCE              1.53       AT NODE       2119   DOF  3
   INSTANCE: BULDGE-SPECIMEN-1                                                               
 LARGEST INCREMENT OF DISP.        -0.656       AT NODE          7   DOF  3
   INSTANCE: BULDGE-SPECIMEN-1                                                               
 LARGEST CORRECTION TO DISP.       -0.699       AT NODE          7   DOF  3
   INSTANCE: BULDGE-SPECIMEN-1                                                               
          FORCE     EQUILIBRIUM NOT ACHIEVED WITHIN TOLERANCE.
 

 ***NOTE: THE SOLUTION APPEARS TO BE DIVERGING. CONVERGENCE IS JUDGED UNLIKELY.


  INCREMENT    16 STARTS. ATTEMPT NUMBER  2, TIME INCREMENT  6.088E-05

  NUMBER OF EQUATIONS =    10911     NUMBER OF FLOATING PT. OPERATIONS =  9.38E+08

  USING THE DIRECT SOLVER WITH  10 PROCESSORS

     CHECK POINT   START OF SOLVER    

     CHECK POINT  END OF SOLVER       

       ELAPSED USER TIME (SEC)      =  0.34000    
       ELAPSED SYSTEM TIME (SEC)    =  3.00000E-02
       ELAPSED TOTAL CPU TIME (SEC) =  0.37000    
       ELAPSED WALLCLOCK TIME (SEC) =          0

               CONVERGENCE CHECKS FOR EQUILIBRIUM ITERATION     1


 AVERAGE FORCE                      0.579       TIME AVG. FORCE       0.485    
 LARGEST RESIDUAL FORCE             -3.06       AT NODE       1053   DOF  3
   INSTANCE: BULDGE-SPECIMEN-1                                                               
 LARGEST INCREMENT OF DISP.         0.806       AT NODE          7   DOF  3
   INSTANCE: BULDGE-SPECIMEN-1                                                               
 LARGEST CORRECTION TO DISP.        0.780       AT NODE          7   DOF  3
   INSTANCE: BULDGE-SPECIMEN-1                                                               
          FORCE     EQUILIBRIUM NOT ACHIEVED WITHIN TOLERANCE.

  NUMBER OF EQUATIONS =    10911     NUMBER OF FLOATING PT. OPERATIONS =  9.38E+08

  USING THE DIRECT SOLVER WITH  10 PROCESSORS

     CHECK POINT   START OF SOLVER    

     CHECK POINT  END OF SOLVER       

       ELAPSED USER TIME (SEC)      =  0.32000    
       ELAPSED SYSTEM TIME (SEC)    =  4.00000E-02
       ELAPSED TOTAL CPU TIME (SEC) =  0.36000    
       ELAPSED WALLCLOCK TIME (SEC) =          0
 

 ***WARNING: THE SYSTEM MATRIX HAS 1 NEGATIVE EIGENVALUES.
             EXPLANATIONS ARE SUGGESTED AFTER THE FIRST OCCURRENCE OF THIS MESSAGE.

               CONVERGENCE CHECKS FOR EQUILIBRIUM ITERATION     2


 AVERAGE FORCE                      0.564       TIME AVG. FORCE       0.484    
 LARGEST RESIDUAL FORCE              3.57       AT NODE       2119   DOF  3
   INSTANCE: BULDGE-SPECIMEN-1                                                               
 LARGEST INCREMENT OF DISP.        -0.156       AT NODE       1050   DOF  3
   INSTANCE: BULDGE-SPECIMEN-1                                                               
 LARGEST CORRECTION TO DISP.       -0.953       AT NODE          7   DOF  3
   INSTANCE: BULDGE-SPECIMEN-1                                                               
          FORCE     EQUILIBRIUM NOT ACHIEVED WITHIN TOLERANCE.

  NUMBER OF EQUATIONS =    10911     NUMBER OF FLOATING PT. OPERATIONS =  9.38E+08

  USING THE DIRECT SOLVER WITH  10 PROCESSORS

     CHECK POINT   START OF SOLVER    

     CHECK POINT  END OF SOLVER       

       ELAPSED USER TIME (SEC)      =  0.33000    
       ELAPSED SYSTEM TIME (SEC)    =  3.00000E-02
       ELAPSED TOTAL CPU TIME (SEC) =  0.36000    
       ELAPSED WALLCLOCK TIME (SEC) =          0

               CONVERGENCE CHECKS FOR EQUILIBRIUM ITERATION     3


 AVERAGE FORCE                      0.561       TIME AVG. FORCE       0.484    
 LARGEST RESIDUAL FORCE            -0.810       AT NODE       2101   DOF  3
   INSTANCE: BULDGE-SPECIMEN-1                                                               
 LARGEST INCREMENT OF DISP.         6.689E-02   AT NODE       1055   DOF  3
   INSTANCE: BULDGE-SPECIMEN-1                                                               
 LARGEST CORRECTION TO DISP.        0.221       AT NODE         55   DOF  3
   INSTANCE: BULDGE-SPECIMEN-1                                                               
          FORCE     EQUILIBRIUM NOT ACHIEVED WITHIN TOLERANCE.

  NUMBER OF EQUATIONS =    10911     NUMBER OF FLOATING PT. OPERATIONS =  9.38E+08

  USING THE DIRECT SOLVER WITH  10 PROCESSORS

     CHECK POINT   START OF SOLVER    

     CHECK POINT  END OF SOLVER       

       ELAPSED USER TIME (SEC)      =  0.31000    
       ELAPSED SYSTEM TIME (SEC)    =  2.00000E-02
       ELAPSED TOTAL CPU TIME (SEC) =  0.33000    
       ELAPSED WALLCLOCK TIME (SEC) =          0
 

 ***WARNING: THE SYSTEM MATRIX HAS 1 NEGATIVE EIGENVALUES.
             EXPLANATIONS ARE SUGGESTED AFTER THE FIRST OCCURRENCE OF THIS MESSAGE.

               CONVERGENCE CHECKS FOR EQUILIBRIUM ITERATION     4


 AVERAGE FORCE                      0.560       TIME AVG. FORCE       0.484    
 LARGEST RESIDUAL FORCE            -0.113       AT NODE       2101   DOF  3
   INSTANCE: BULDGE-SPECIMEN-1                                                               
 LARGEST INCREMENT OF DISP.        -3.320E-02   AT NODE          7   DOF  3
   INSTANCE: BULDGE-SPECIMEN-1                                                               
 LARGEST CORRECTION TO DISP.       -0.100       AT NODE          7   DOF  3
   INSTANCE: BULDGE-SPECIMEN-1                                                               
          FORCE     EQUILIBRIUM NOT ACHIEVED WITHIN TOLERANCE.

  NUMBER OF EQUATIONS =    10911     NUMBER OF FLOATING PT. OPERATIONS =  9.38E+08

  USING THE DIRECT SOLVER WITH  10 PROCESSORS

     CHECK POINT   START OF SOLVER    

     CHECK POINT  END OF SOLVER       

       ELAPSED USER TIME (SEC)      =  0.35000    
       ELAPSED SYSTEM TIME (SEC)    =  1.00000E-02
       ELAPSED TOTAL CPU TIME (SEC) =  0.36000    
       ELAPSED WALLCLOCK TIME (SEC) =          0

               CONVERGENCE CHECKS FOR EQUILIBRIUM ITERATION     5


 AVERAGE FORCE                      0.561       TIME AVG. FORCE       0.484    
 LARGEST RESIDUAL FORCE            -1.713E-02   AT NODE       1853   DOF  3
   INSTANCE: BULDGE-SPECIMEN-1                                                               
 LARGEST INCREMENT OF DISP.         2.505E-02   AT NODE          7   DOF  3
   INSTANCE: BULDGE-SPECIMEN-1                                                               
 LARGEST CORRECTION TO DISP.        5.826E-02   AT NODE          7   DOF  3
   INSTANCE: BULDGE-SPECIMEN-1                                                               
          FORCE     EQUILIBRIUM NOT ACHIEVED WITHIN TOLERANCE.

  NUMBER OF EQUATIONS =    10911     NUMBER OF FLOATING PT. OPERATIONS =  9.38E+08

  USING THE DIRECT SOLVER WITH  10 PROCESSORS

     CHECK POINT   START OF SOLVER    

     CHECK POINT  END OF SOLVER       

       ELAPSED USER TIME (SEC)      =  0.32000    
       ELAPSED SYSTEM TIME (SEC)    =  3.00000E-02
       ELAPSED TOTAL CPU TIME (SEC) =  0.35000    
       ELAPSED WALLCLOCK TIME (SEC) =          0

               CONVERGENCE CHECKS FOR EQUILIBRIUM ITERATION     6


 AVERAGE FORCE                      0.567       TIME AVG. FORCE       0.484    
 LARGEST RESIDUAL FORCE            -0.391       AT NODE       1053   DOF  3
   INSTANCE: BULDGE-SPECIMEN-1                                                               
 LARGEST INCREMENT OF DISP.         0.328       AT NODE          7   DOF  3
   INSTANCE: BULDGE-SPECIMEN-1                                                               
 LARGEST CORRECTION TO DISP.        0.303       AT NODE          7   DOF  3
   INSTANCE: BULDGE-SPECIMEN-1                                                               
          FORCE     EQUILIBRIUM NOT ACHIEVED WITHIN TOLERANCE.
 

 ***NOTE: THE SOLUTION APPEARS TO BE DIVERGING. CONVERGENCE IS JUDGED UNLIKELY.


  INCREMENT    16 STARTS. ATTEMPT NUMBER  3, TIME INCREMENT  5.000E-05

  NUMBER OF EQUATIONS =    10911     NUMBER OF FLOATING PT. OPERATIONS =  9.38E+08

  USING THE DIRECT SOLVER WITH  10 PROCESSORS

     CHECK POINT   START OF SOLVER    

     CHECK POINT  END OF SOLVER       

       ELAPSED USER TIME (SEC)      =  0.35000    
       ELAPSED SYSTEM TIME (SEC)    =  2.00000E-02
       ELAPSED TOTAL CPU TIME (SEC) =  0.37000    
       ELAPSED WALLCLOCK TIME (SEC) =          0

               CONVERGENCE CHECKS FOR EQUILIBRIUM ITERATION     1


 AVERAGE FORCE                      0.564       TIME AVG. FORCE       0.484    
 LARGEST RESIDUAL FORCE            -0.117       AT NODE       1053   DOF  3
   INSTANCE: BULDGE-SPECIMEN-1                                                               
 LARGEST INCREMENT OF DISP.         0.191       AT NODE          7   DOF  3
   INSTANCE: BULDGE-SPECIMEN-1                                                               
 LARGEST CORRECTION TO DISP.        0.170       AT NODE          7   DOF  3
   INSTANCE: BULDGE-SPECIMEN-1                                                               
          FORCE     EQUILIBRIUM NOT ACHIEVED WITHIN TOLERANCE.

  NUMBER OF EQUATIONS =    10911     NUMBER OF FLOATING PT. OPERATIONS =  9.38E+08

  USING THE DIRECT SOLVER WITH  10 PROCESSORS

     CHECK POINT   START OF SOLVER    

     CHECK POINT  END OF SOLVER       

       ELAPSED USER TIME (SEC)      =  0.31000    
       ELAPSED SYSTEM TIME (SEC)    =  3.00000E-02
       ELAPSED TOTAL CPU TIME (SEC) =  0.34000    
       ELAPSED WALLCLOCK TIME (SEC) =          0
 

 ***WARNING: THE SYSTEM MATRIX HAS 1 NEGATIVE EIGENVALUES.
             EXPLANATIONS ARE SUGGESTED AFTER THE FIRST OCCURRENCE OF THIS MESSAGE.

               CONVERGENCE CHECKS FOR EQUILIBRIUM ITERATION     2


 AVERAGE FORCE                      0.562       TIME AVG. FORCE       0.484    
 LARGEST RESIDUAL FORCE            -4.538E-02   AT NODE       1053   DOF  3
   INSTANCE: BULDGE-SPECIMEN-1                                                               
 LARGEST INCREMENT OF DISP.         8.807E-02   AT NODE          7   DOF  3
   INSTANCE: BULDGE-SPECIMEN-1                                                               
 LARGEST CORRECTION TO DISP.       -0.103       AT NODE          7   DOF  3
   INSTANCE: BULDGE-SPECIMEN-1                                                               
          FORCE     EQUILIBRIUM NOT ACHIEVED WITHIN TOLERANCE.

  NUMBER OF EQUATIONS =    10911     NUMBER OF FLOATING PT. OPERATIONS =  9.38E+08

  USING THE DIRECT SOLVER WITH  10 PROCESSORS

     CHECK POINT   START OF SOLVER    

     CHECK POINT  END OF SOLVER       

       ELAPSED USER TIME (SEC)      =  0.37000    
       ELAPSED SYSTEM TIME (SEC)    =  1.00000E-02
       ELAPSED TOTAL CPU TIME (SEC) =  0.38000    
       ELAPSED WALLCLOCK TIME (SEC) =          0
 

 ***WARNING: THE SYSTEM MATRIX HAS 1 NEGATIVE EIGENVALUES.
             EXPLANATIONS ARE SUGGESTED AFTER THE FIRST OCCURRENCE OF THIS MESSAGE.

               CONVERGENCE CHECKS FOR EQUILIBRIUM ITERATION     3


 AVERAGE FORCE                      0.561       TIME AVG. FORCE       0.484    
 LARGEST RESIDUAL FORCE            -1.297E-02   AT NODE       1053   DOF  3
   INSTANCE: BULDGE-SPECIMEN-1                                                               
 LARGEST INCREMENT OF DISP.         3.287E-02   AT NODE          7   DOF  3
   INSTANCE: BULDGE-SPECIMEN-1                                                               
 LARGEST CORRECTION TO DISP.       -5.519E-02   AT NODE          7   DOF  3
   INSTANCE: BULDGE-SPECIMEN-1                                                               
          FORCE     EQUILIBRIUM NOT ACHIEVED WITHIN TOLERANCE.

  NUMBER OF EQUATIONS =    10911     NUMBER OF FLOATING PT. OPERATIONS =  9.38E+08

  USING THE DIRECT SOLVER WITH  10 PROCESSORS

     CHECK POINT   START OF SOLVER    

     CHECK POINT  END OF SOLVER       

       ELAPSED USER TIME (SEC)      =  0.45000    
       ELAPSED SYSTEM TIME (SEC)    =  3.00000E-02
       ELAPSED TOTAL CPU TIME (SEC) =  0.48000    
       ELAPSED WALLCLOCK TIME (SEC) =          0
 

 ***WARNING: THE SYSTEM MATRIX HAS 1 NEGATIVE EIGENVALUES.
             EXPLANATIONS ARE SUGGESTED AFTER THE FIRST OCCURRENCE OF THIS MESSAGE.

               CONVERGENCE CHECKS FOR EQUILIBRIUM ITERATION     4


 AVERAGE FORCE                      0.558       TIME AVG. FORCE       0.484    
 LARGEST RESIDUAL FORCE            -0.203       AT NODE       1053   DOF  3
   INSTANCE: BULDGE-SPECIMEN-1                                                               
 LARGEST INCREMENT OF DISP.        -0.205       AT NODE          7   DOF  3
   INSTANCE: BULDGE-SPECIMEN-1                                                               
 LARGEST CORRECTION TO DISP.       -0.238       AT NODE          7   DOF  3
   INSTANCE: BULDGE-SPECIMEN-1                                                               
          FORCE     EQUILIBRIUM NOT ACHIEVED WITHIN TOLERANCE.
 

 ***NOTE: THE SOLUTION APPEARS TO BE DIVERGING. CONVERGENCE IS JUDGED UNLIKELY.
 

 ***ERROR: TIME INCREMENT REQUIRED IS LESS THAN THE MINIMUM SPECIFIED

 ***ERROR: THE ANALYSIS HAS BEEN TERMINATED DUE TO PREVIOUS ERRORS. ALL OUTPUT 
           REQUESTS HAVE BEEN WRITTEN FOR THE LAST CONVERGED INCREMENT.



     ANALYSIS SUMMARY:
     TOTAL OF         20  INCREMENTS
                      13  CUTBACKS IN AUTOMATIC INCREMENTATION
                      96  ITERATIONS INCLUDING CONTACT ITERATIONS IF PRESENT
                      96  PASSES THROUGH THE EQUATION SOLVER OF WHICH 
                      96  INVOLVE MATRIX DECOMPOSITION, INCLUDING
                       0  DECOMPOSITION(S) OF THE MASS MATRIX
                       1  REORDERING OF EQUATIONS TO MINIMIZE WAVEFRONT
                       0  ADDITIONAL RESIDUAL EVALUATIONS FOR LINE SEARCHES
                       0  ADDITIONAL OPERATOR EVALUATIONS FOR LINE SEARCHES
                       1  WARNING MESSAGES DURING USER INPUT PROCESSING
                      31  WARNING MESSAGES DURING ANALYSIS
                       0  ANALYSIS WARNINGS ARE NUMERICAL PROBLEM MESSAGES
                      23  ANALYSIS WARNINGS ARE NEGATIVE EIGENVALUE MESSAGES
                       2  ERROR MESSAGES



     JOB TIME SUMMARY
       USER TIME (SEC)      =   56.190    
       SYSTEM TIME (SEC)    =   9.5700    
       TOTAL CPU TIME (SEC) =   65.760    
       WALLCLOCK TIME (SEC) =         11
