 Abaqus/Standard 6.14-1                  DATE 02-Sep-2021 TIME 11:42:39
 SUMMARY OF JOB INFORMATION:
 STEP  INC ATT SEVERE EQUIL TOTAL  TOTAL      STEP       INC OF       DOF    IF
               DISCON ITERS ITERS  TIME/    TIME/LPF    TIME/LPF    MONITOR RIKS
               ITERS               FREQ
   1     1   1U    0     2     2  0.00       0.00       5.000     
   1     1   2     0     3     3  1.25       1.25       1.250     
   1     2   1     0     2     2  2.50       2.50       1.250     
   1     3   1     0     2     2  4.38       4.38       1.875     
   1     4   1     0     2     2  5.00       5.00       0.6250    
   2     1   1U    0     2     2  5.00       0.00       1.000     
   2     1   2U    0     2     2  5.00       0.00       0.2500    
   2     1   3     0     4     4  5.06       0.0625     0.06250   
   2     2   1     0     4     4  5.12       0.125      0.06250   
   2     3   1     0     3     3  5.22       0.219      0.09375   
   2     4   1     0     3     3  5.36       0.359      0.1406    
   2     5   1     0     3     3  5.57       0.570      0.2109    
   2     6   1     0     3     3  5.89       0.887      0.3164    
   2     7   1     0     1     1  6.00       1.00       0.1133    
   2     8   1     0     2     2  6.47       1.47       0.4746    
   2     9   1     0     3     3  7.00       2.00       0.5254    
   2    10   1U    0     1     1  7.00       2.00       0.7881    
   2    10   2     0     3     3  7.20       2.20       0.1970    
   2    11   1U    0     1     1  7.20       2.20       0.2955    
   2    11   2     0     3     3  7.27       2.27       0.07388   
   2    12   1U    0     4     4  7.27       2.27       0.1108    
   2    12   2     0     2     2  7.30       2.30       0.02771   
   2    13   1     0     5     5  7.34       2.34       0.04156   
   2    14   1U    0     1     1  7.34       2.34       0.04156   
   2    14   2U    0     2     2  7.34       2.34       0.01039   
   2    14   3U    0     5     5  7.34       2.34       0.002597  
   2    14   4U    0     6     6  7.34       2.34       0.0006494 
   2    14   5     0     3     3  7.34       2.34       0.0001623 
   2    15   1     0     3     3  7.34       2.34       0.0001623 
   2    16   1U    0     6     6  7.34       2.34       0.0002435 
   2    16   2U    0     6     6  7.34       2.34       6.088e-05 
   2    16   3U    0     4     4  7.34       2.34       5.000e-05 
                          
 THE ANALYSIS HAS NOT BEEN COMPLETED
