 Abaqus/Standard 6.14-1                  DATE 02-Sep-2021 TIME 08:35:58
 SUMMARY OF JOB INFORMATION:
 STEP  INC ATT SEVERE EQUIL TOTAL  TOTAL      STEP       INC OF       DOF    IF
               DISCON ITERS ITERS  TIME/    TIME/LPF    TIME/LPF    MONITOR RIKS
               ITERS               FREQ
   1     1   1     0     2     2  0.102      0.102      0.1017    
   1     2   1     0     1     1  0.203      0.203      0.1017    
   1     3   1     0     1     1  0.305      0.305      0.1017    
   1     4   1     0     1     1  0.407      0.407      0.1017    
   1     5   1     0     1     1  0.508      0.508      0.1017    
   1     6   1     0     1     1  0.610      0.610      0.1017    
   1     7   1     0     1     1  0.712      0.712      0.1017    
   1     8   1     0     1     1  0.814      0.814      0.1017    
   1     9   1     0     1     1  0.915      0.915      0.1017    
   1    10   1     0     1     1  1.02       1.02       0.1017    
   1    11   1     0     1     1  1.12       1.12       0.1017    
   1    12   1     0     1     1  1.22       1.22       0.1017    
   1    13   1     0     1     1  1.32       1.32       0.1017    
   1    14   1     0     1     1  1.42       1.42       0.1017    
   1    15   1     0     1     1  1.53       1.53       0.1017    
   1    16   1     0     1     1  1.63       1.63       0.1017    
   1    17   1     0     1     1  1.73       1.73       0.1017    
   1    18   1     0     1     1  1.83       1.83       0.1017    
   1    19   1     0     1     1  1.93       1.93       0.1017    
   1    20   1     0     2     2  2.03       2.03       0.1017    
   1    21   1     0     2     2  2.14       2.14       0.1017    
   1    22   1     0     2     2  2.24       2.24       0.1017    
   1    23   1     0     2     2  2.34       2.34       0.1017    
   1    24   1     0     1     1  2.44       2.44       0.1017    
   1    25   1     0     1     1  2.54       2.54       0.1017    
   1    26   1     0     2     2  2.64       2.64       0.1017    
   1    27   1     0     2     2  2.75       2.75       0.1017    
   1    28   1     0     2     2  2.85       2.85       0.1017    
   1    29   1     0     2     2  2.95       2.95       0.1017    
   1    30   1     0     1     1  3.05       3.05       0.1017    
   1    31   1     0     2     2  3.15       3.15       0.1017    
   1    32   1     0     2     2  3.25       3.25       0.1017    
   1    33   1     0     2     2  3.36       3.36       0.1017    
   1    34   1     0     1     1  3.46       3.46       0.1017    
   1    35   1     0     2     2  3.56       3.56       0.1017    
   1    36   1     0     2     2  3.66       3.66       0.1017    
   1    37   1     0     2     2  3.76       3.76       0.1017    
   1    38   1     0     2     2  3.86       3.86       0.1017    
   1    39   1     0     2     2  3.97       3.97       0.1017    
   1    40   1     0     1     1  4.07       4.07       0.1017    
   1    41   1     0     1     1  4.17       4.17       0.1017    
   1    42   1     0     2     2  4.27       4.27       0.1017    
   1    43   1     0     2     2  4.37       4.37       0.1017    
   1    44   1     0     2     2  4.47       4.47       0.1017    
   1    45   1     0     2     2  4.58       4.58       0.1017    
   1    46   1     0     2     2  4.68       4.68       0.1017    
   1    47   1     0     2     2  4.78       4.78       0.1017    
   1    48   1     0     2     2  4.88       4.88       0.1017    
   1    49   1     0     2     2  4.98       4.98       0.1017    
   1    50   1     0     2     2  5.08       5.08       0.1017    
   1    51   1     0     1     1  5.19       5.19       0.1017    
   1    52   1     0     1     1  5.29       5.29       0.1017    
   1    53   1     0     1     1  5.39       5.39       0.1017    
   1    54   1     0     1     1  5.49       5.49       0.1017    
   1    55   1     0     1     1  5.59       5.59       0.1017    
   1    56   1     0     2     2  5.69       5.69       0.1017    
   1    57   1     0     2     2  5.80       5.80       0.1017    
   1    58   1     0     2     2  5.90       5.90       0.1017    
   1    59   1     0     2     2  6.00       6.00       0.1017    
                          
 THE ANALYSIS HAS COMPLETED SUCCESSFULLY
