1

   Abaqus 6.14-1                                  Date 02-Sep-2021   Time 11:40:47
   For use at UNIVERSITY OF CAPE TOWN under license from Dassault Systemes or its subsidiary.

                                                                                 
                                                                                 
 STEP    1     INCREMENT     1     STEP TIME    0.00    


                        S T E P       1     S T A T I C   A N A L Y S I S


                                                                                          

     AUTOMATIC TIME CONTROL WITH -
          A SUGGESTED INITIAL TIME INCREMENT OF                 5.00    
          AND A TOTAL TIME PERIOD OF                            5.00    
          THE MINIMUM TIME INCREMENT ALLOWED IS                5.000E-05
          THE MAXIMUM TIME INCREMENT ALLOWED IS                 5.00    

     LINEAR EQUATION SOLVER TYPE         DIRECT SPARSE

 CONVERGENCE TOLERANCE PARAMETERS FOR FORCE    
     CRITERION FOR RESIDUAL FORCE     FOR A NONLINEAR PROBLEM          5.000E-03
     CRITERION FOR DISP.    CORRECTION IN A NONLINEAR PROBLEM          1.000E-02
     INITIAL VALUE OF TIME AVERAGE FORCE                               1.000E-02
     AVERAGE FORCE     IS TIME AVERAGE FORCE    
     ALTERNATE CRIT. FOR RESIDUAL FORCE     FOR A NONLINEAR PROBLEM    2.000E-02
     CRITERION FOR ZERO FORCE     RELATIVE TO TIME AVRG. FORCE         1.000E-05
     CRITERION FOR RESIDUAL FORCE     WHEN THERE IS ZERO FLUX          1.000E-05
     CRITERION FOR DISP.    CORRECTION WHEN THERE IS ZERO FLUX         1.000E-03
     CRITERION FOR RESIDUAL FORCE     FOR A LINEAR INCREMENT           1.000E-08
     FIELD CONVERSION RATIO                                             1.00    
     CRITERION FOR ZERO FORCE     REL. TO TIME AVRG. MAX. FORCE        1.000E-05
     CRITERION FOR ZERO DISP.    RELATIVE TO CHARACTERISTIC LENGTH     1.000E-08

     VOLUMETRIC STRAIN COMPATIBILITY TOLERANCE FOR HYBRID SOLIDS       1.000E-05
     AXIAL STRAIN COMPATIBILITY TOLERANCE FOR HYBRID BEAMS             1.000E-05
     TRANS. SHEAR STRAIN COMPATIBILITY TOLERANCE FOR HYBRID BEAMS      1.000E-05
     SOFT CONTACT CONSTRAINT COMPATIBILITY TOLERANCE FOR P>P0          5.000E-03
     SOFT CONTACT CONSTRAINT COMPATIBILITY TOLERANCE FOR P=0.0         0.100    
     CONTACT FORCE ERROR TOLERANCE FOR CONVERT SDI=YES                 1.00    
     DISPLACEMENT COMPATIBILITY TOLERANCE FOR DCOUP ELEMENTS           1.000E-05
     ROTATION COMPATIBILITY TOLERANCE FOR DCOUP ELEMENTS               1.000E-05

 EQUILIBRIUM WILL BE CHECKED FOR SEVERE DISCONTINUITY ITERATIONS

 TIME INCREMENTATION CONTROL PARAMETERS:
     FIRST EQUILIBRIUM ITERATION FOR CONSECUTIVE DIVERGENCE CHECK              4
     EQUILIBRIUM ITERATION AT WHICH LOG. CONVERGENCE RATE CHECK BEGINS         8
     EQUILIBRIUM ITERATION AFTER WHICH ALTERNATE RESIDUAL IS USED              9
     MAXIMUM EQUILIBRIUM ITERATIONS ALLOWED                                   16
     EQUILIBRIUM ITERATION COUNT FOR CUT-BACK IN NEXT INCREMENT               10
     MAXIMUM EQUILIB. ITERS IN TWO INCREMENTS FOR TIME INCREMENT INCREASE      4
     MAXIMUM ITERATIONS FOR SEVERE DISCONTINUITIES                            50
     MAXIMUM CUT-BACKS ALLOWED IN AN INCREMENT                                 5
     MAXIMUM DISCON. ITERS IN TWO INCREMENTS FOR TIME INCREMENT INCREASE      50
     MAXIMUM CONTACT AUGMENTATIONS FOR *SURFACE BEHAVIOR,AUGMENTED LAGRANGE   50
     CUT-BACK FACTOR AFTER DIVERGENCE                                 0.2500    
     CUT-BACK FACTOR FOR TOO SLOW CONVERGENCE                         0.5000    
     CUT-BACK FACTOR AFTER TOO MANY EQUILIBRIUM ITERATIONS            0.7500    
     CUT-BACK FACTOR AFTER TOO MANY SEVERE DISCONTINUITY ITERATIONS   0.2500    
     CUT-BACK FACTOR AFTER PROBLEMS IN ELEMENT ASSEMBLY               0.2500    
     INCREASE FACTOR AFTER TWO INCREMENTS THAT CONVERGE QUICKLY        1.500    
     MAX. TIME INCREMENT INCREASE FACTOR ALLOWED                       1.500    
     MAX. TIME INCREMENT INCREASE FACTOR ALLOWED (DYNAMICS)            1.250    
     MAX. TIME INCREMENT INCREASE FACTOR ALLOWED (DIFFUSION)           2.000    
     MINIMUM TIME INCREMENT RATIO FOR EXTRAPOLATION TO OCCUR          0.1000    
     MAX. RATIO OF TIME INCREMENT TO STABILITY LIMIT                   1.000    
     FRACTION OF STABILITY LIMIT FOR NEW TIME INCREMENT               0.9500    
     TIME INCREMENT INCREASE FACTOR BEFORE A TIME POINT                1.000    
     GLOBAL STABILIZATION CONTROL IS NOT USED

          PRINT OF INCREMENT NUMBER, TIME, ETC., EVERY    1  INCREMENTS

     THE MAXIMUM NUMBER OF INCREMENTS IN THIS STEP IS                     100

          LARGE DISPLACEMENT THEORY WILL BE USED

     LINEAR EXTRAPOLATION WILL BE USED

     CHARACTERISTIC ELEMENT LENGTH      2.87    

     DETAILS REGARDING ACTUAL SOLUTION WAVEFRONT REQUESTED

     DETAILED OUTPUT OF DIAGNOSTICS TO DATABASE REQUESTED

     PRINT OF INCREMENT NUMBER, TIME, ETC., TO THE MESSAGE FILE EVERY     1  INCREMENTS

     ELEMENT OPERATIONS WILL BE CARRIED OUT IN PARALLEL USING  10 PROCESSORS

     PARALLEL CONTACT TRACKING ENABLED


     COLLECTING MODEL CONSTRAINT INFORMATION FOR OVERCONSTRAINT CHECKS

     COLLECTING STEP CONSTRAINT INFORMATION FOR OVERCONSTRAINT CHECKS
  
     ASYNCHRONOUS OUTPUT DATABASE FRAME FLUSH STARTED
  


  INCREMENT     1 STARTS. ATTEMPT NUMBER  1, TIME INCREMENT   5.00    
 
     INITIAL ELEMENT LOAD BALANCE
        COMPUTE NODE   1   PROCESS    NUMBER OF ELEMENTS
                              1            207
                              2            207
                              3            207
                              4            212
                              5            207
                              6            207
                              7            207
                              8            207
                              9            207
                             10            207

  NUMBER OF EQUATIONS =    10911     NUMBER OF FLOATING PT. OPERATIONS =  9.38E+08

  USING THE DIRECT SOLVER WITH  10 PROCESSORS

     CHECK POINT   START OF SOLVER    

     CHECK POINT  END OF SOLVER       

       ELAPSED USER TIME (SEC)      =  0.81000    
       ELAPSED SYSTEM TIME (SEC)    =  4.00000E-02
       ELAPSED TOTAL CPU TIME (SEC) =  0.85000    
       ELAPSED WALLCLOCK TIME (SEC) =          0

               CONVERGENCE CHECKS FOR EQUILIBRIUM ITERATION     1


 AVERAGE FORCE                      3.427E+06   TIME AVG. FORCE       3.427E+06
 LARGEST RESIDUAL FORCE             2.569E+09   AT NODE       1692   DOF  1
   INSTANCE: BULDGE-SPECIMEN-1                                                               
 LARGEST INCREMENT OF DISP.         -1.00       AT NODE          1   DOF  3
   INSTANCE: BULDGE-SPECIMEN-1                                                               
 LARGEST CORRECTION TO DISP.        -1.00       AT NODE          1   DOF  3
   INSTANCE: BULDGE-SPECIMEN-1                                                               
          FORCE     EQUILIBRIUM NOT ACHIEVED WITHIN TOLERANCE.

  NUMBER OF EQUATIONS =    10911     NUMBER OF FLOATING PT. OPERATIONS =  9.38E+08

  USING THE DIRECT SOLVER WITH  10 PROCESSORS

     CHECK POINT   START OF SOLVER    

     CHECK POINT  END OF SOLVER       

       ELAPSED USER TIME (SEC)      =  0.33000    
       ELAPSED SYSTEM TIME (SEC)    =  3.00000E-02
       ELAPSED TOTAL CPU TIME (SEC) =  0.36000    
       ELAPSED WALLCLOCK TIME (SEC) =          0
 

 ***WARNING: THE SYSTEM MATRIX HAS 72 NEGATIVE EIGENVALUES.

     NEGATIVE EIGENVALUES MEAN THAT THE SYSTEM MATRIX IS NOT 
     POSITIVE DEFINITE:
     FOR EXAMPLE, A BIFURCATION (BUCKLING) LOAD MAY HAVE BEEN EXCEEDED.
   ELEMENT BULDGE-SPECIMEN-1.4 IS DISTORTING EXCESSIVELY.
   ELEMENT BULDGE-SPECIMEN-1.4 IS DISTORTING EXCESSIVELY.
   ELEMENT BULDGE-SPECIMEN-1.4 IS DISTORTING EXCESSIVELY.
   ELEMENT BULDGE-SPECIMEN-1.6 IS DISTORTING EXCESSIVELY.
   ELEMENT BULDGE-SPECIMEN-1.6 IS DISTORTING EXCESSIVELY.
   ELEMENT BULDGE-SPECIMEN-1.7 IS DISTORTING EXCESSIVELY.
   ELEMENT BULDGE-SPECIMEN-1.8 IS DISTORTING EXCESSIVELY.
   ELEMENT BULDGE-SPECIMEN-1.9 IS DISTORTING EXCESSIVELY.
   ELEMENT BULDGE-SPECIMEN-1.10 IS DISTORTING EXCESSIVELY.
   ELEMENT BULDGE-SPECIMEN-1.10 IS DISTORTING EXCESSIVELY.
   ELEMENT BULDGE-SPECIMEN-1.13 IS DISTORTING EXCESSIVELY.
   ELEMENT BULDGE-SPECIMEN-1.14 IS DISTORTING EXCESSIVELY.
   ELEMENT BULDGE-SPECIMEN-1.15 IS DISTORTING EXCESSIVELY.
   ELEMENT BULDGE-SPECIMEN-1.16 IS DISTORTING EXCESSIVELY.
   ELEMENT BULDGE-SPECIMEN-1.20 IS DISTORTING EXCESSIVELY.
   ELEMENT BULDGE-SPECIMEN-1.23 IS DISTORTING EXCESSIVELY.
   ELEMENT BULDGE-SPECIMEN-1.23 IS DISTORTING EXCESSIVELY.
   ELEMENT BULDGE-SPECIMEN-1.26 IS DISTORTING EXCESSIVELY.
   ELEMENT BULDGE-SPECIMEN-1.26 IS DISTORTING EXCESSIVELY.
   ELEMENT BULDGE-SPECIMEN-1.45 IS DISTORTING EXCESSIVELY.
   ELEMENT BULDGE-SPECIMEN-1.45 IS DISTORTING EXCESSIVELY.
   ELEMENT BULDGE-SPECIMEN-1.46 IS DISTORTING EXCESSIVELY.
   ELEMENT BULDGE-SPECIMEN-1.47 IS DISTORTING EXCESSIVELY.
   ELEMENT BULDGE-SPECIMEN-1.49 IS DISTORTING EXCESSIVELY.
   ELEMENT BULDGE-SPECIMEN-1.49 IS DISTORTING EXCESSIVELY.
   ELEMENT BULDGE-SPECIMEN-1.50 IS DISTORTING EXCESSIVELY.
   ELEMENT BULDGE-SPECIMEN-1.51 IS DISTORTING EXCESSIVELY.
   ELEMENT BULDGE-SPECIMEN-1.65 IS DISTORTING EXCESSIVELY.
   ELEMENT BULDGE-SPECIMEN-1.67 IS DISTORTING EXCESSIVELY.
   ELEMENT BULDGE-SPECIMEN-1.68 IS DISTORTING EXCESSIVELY.
   ELEMENT BULDGE-SPECIMEN-1.71 IS DISTORTING EXCESSIVELY.
   ELEMENT BULDGE-SPECIMEN-1.72 IS DISTORTING EXCESSIVELY.
   ELEMENT BULDGE-SPECIMEN-1.72 IS DISTORTING EXCESSIVELY.
   ELEMENT BULDGE-SPECIMEN-1.75 IS DISTORTING EXCESSIVELY.
   ELEMENT BULDGE-SPECIMEN-1.76 IS DISTORTING EXCESSIVELY.
   ELEMENT BULDGE-SPECIMEN-1.76 IS DISTORTING EXCESSIVELY.
   ELEMENT BULDGE-SPECIMEN-1.77 IS DISTORTING EXCESSIVELY.
   ELEMENT BULDGE-SPECIMEN-1.108 IS DISTORTING EXCESSIVELY.
   ELEMENT BULDGE-SPECIMEN-1.108 IS DISTORTING EXCESSIVELY.
   ELEMENT BULDGE-SPECIMEN-1.109 IS DISTORTING EXCESSIVELY.
   ELEMENT BULDGE-SPECIMEN-1.110 IS DISTORTING EXCESSIVELY.
   ELEMENT BULDGE-SPECIMEN-1.110 IS DISTORTING EXCESSIVELY.
   ELEMENT BULDGE-SPECIMEN-1.110 IS DISTORTING EXCESSIVELY.
   ELEMENT BULDGE-SPECIMEN-1.111 IS DISTORTING EXCESSIVELY.
   ELEMENT BULDGE-SPECIMEN-1.112 IS DISTORTING EXCESSIVELY.
   ELEMENT BULDGE-SPECIMEN-1.112 IS DISTORTING EXCESSIVELY.
   ELEMENT BULDGE-SPECIMEN-1.112 IS DISTORTING EXCESSIVELY.
   ELEMENT BULDGE-SPECIMEN-1.115 IS DISTORTING EXCESSIVELY.
   ELEMENT BULDGE-SPECIMEN-1.115 IS DISTORTING EXCESSIVELY.
   ELEMENT BULDGE-SPECIMEN-1.115 IS DISTORTING EXCESSIVELY.
   ELEMENT BULDGE-SPECIMEN-1.115 IS DISTORTING EXCESSIVELY.
   ELEMENT BULDGE-SPECIMEN-1.116 IS DISTORTING EXCESSIVELY.
   ELEMENT BULDGE-SPECIMEN-1.117 IS DISTORTING EXCESSIVELY.
   ELEMENT BULDGE-SPECIMEN-1.118 IS DISTORTING EXCESSIVELY.
   ELEMENT BULDGE-SPECIMEN-1.118 IS DISTORTING EXCESSIVELY.
   ELEMENT BULDGE-SPECIMEN-1.118 IS DISTORTING EXCESSIVELY.
   ELEMENT BULDGE-SPECIMEN-1.119 IS DISTORTING EXCESSIVELY.
   ELEMENT BULDGE-SPECIMEN-1.122 IS DISTORTING EXCESSIVELY.
   ELEMENT BULDGE-SPECIMEN-1.122 IS DISTORTING EXCESSIVELY.
   ELEMENT BULDGE-SPECIMEN-1.123 IS DISTORTING EXCESSIVELY.
   ELEMENT BULDGE-SPECIMEN-1.123 IS DISTORTING EXCESSIVELY.
   ELEMENT BULDGE-SPECIMEN-1.124 IS DISTORTING EXCESSIVELY.
   ELEMENT BULDGE-SPECIMEN-1.125 IS DISTORTING EXCESSIVELY.
   ELEMENT BULDGE-SPECIMEN-1.125 IS DISTORTING EXCESSIVELY.
   ELEMENT BULDGE-SPECIMEN-1.126 IS DISTORTING EXCESSIVELY.
   ELEMENT BULDGE-SPECIMEN-1.129 IS DISTORTING EXCESSIVELY.
   ELEMENT BULDGE-SPECIMEN-1.129 IS DISTORTING EXCESSIVELY.
   ELEMENT BULDGE-SPECIMEN-1.129 IS DISTORTING EXCESSIVELY.
   ELEMENT BULDGE-SPECIMEN-1.130 IS DISTORTING EXCESSIVELY.
   ELEMENT BULDGE-SPECIMEN-1.130 IS DISTORTING EXCESSIVELY.
   ELEMENT BULDGE-SPECIMEN-1.130 IS DISTORTING EXCESSIVELY.
   ELEMENT BULDGE-SPECIMEN-1.131 IS DISTORTING EXCESSIVELY.
   ELEMENT BULDGE-SPECIMEN-1.132 IS DISTORTING EXCESSIVELY.
   ELEMENT BULDGE-SPECIMEN-1.132 IS DISTORTING EXCESSIVELY.
   ELEMENT BULDGE-SPECIMEN-1.132 IS DISTORTING EXCESSIVELY.
   ELEMENT BULDGE-SPECIMEN-1.133 IS DISTORTING EXCESSIVELY.
   ELEMENT BULDGE-SPECIMEN-1.135 IS DISTORTING EXCESSIVELY.
   ELEMENT BULDGE-SPECIMEN-1.135 IS DISTORTING EXCESSIVELY.
   ELEMENT BULDGE-SPECIMEN-1.135 IS DISTORTING EXCESSIVELY.
   ELEMENT BULDGE-SPECIMEN-1.135 IS DISTORTING EXCESSIVELY.
   ELEMENT BULDGE-SPECIMEN-1.151 IS DISTORTING EXCESSIVELY.
   ELEMENT BULDGE-SPECIMEN-1.160 IS DISTORTING EXCESSIVELY.
   ELEMENT BULDGE-SPECIMEN-1.160 IS DISTORTING EXCESSIVELY.
   ELEMENT BULDGE-SPECIMEN-1.160 IS DISTORTING EXCESSIVELY.
   ELEMENT BULDGE-SPECIMEN-1.164 IS DISTORTING EXCESSIVELY.
   ELEMENT BULDGE-SPECIMEN-1.165 IS DISTORTING EXCESSIVELY.
   ELEMENT BULDGE-SPECIMEN-1.165 IS DISTORTING EXCESSIVELY.
   ELEMENT BULDGE-SPECIMEN-1.171 IS DISTORTING EXCESSIVELY.
   ELEMENT BULDGE-SPECIMEN-1.171 IS DISTORTING EXCESSIVELY.
   ELEMENT BULDGE-SPECIMEN-1.172 IS DISTORTING EXCESSIVELY.
   ELEMENT BULDGE-SPECIMEN-1.176 IS DISTORTING EXCESSIVELY.
   ELEMENT BULDGE-SPECIMEN-1.177 IS DISTORTING EXCESSIVELY.
   ELEMENT BULDGE-SPECIMEN-1.178 IS DISTORTING EXCESSIVELY.
   ELEMENT BULDGE-SPECIMEN-1.178 IS DISTORTING EXCESSIVELY.
   ELEMENT BULDGE-SPECIMEN-1.180 IS DISTORTING EXCESSIVELY.
   ELEMENT BULDGE-SPECIMEN-1.180 IS DISTORTING EXCESSIVELY.
   ELEMENT BULDGE-SPECIMEN-1.180 IS DISTORTING EXCESSIVELY.
   ELEMENT BULDGE-SPECIMEN-1.182 IS DISTORTING EXCESSIVELY.
   ELEMENT BULDGE-SPECIMEN-1.182 IS DISTORTING EXCESSIVELY.
   ELEMENT BULDGE-SPECIMEN-1.183 IS DISTORTING EXCESSIVELY.
   ELEMENT BULDGE-SPECIMEN-1.184 IS DISTORTING EXCESSIVELY.
   ELEMENT BULDGE-SPECIMEN-1.184 IS DISTORTING EXCESSIVELY.
   ELEMENT BULDGE-SPECIMEN-1.186 IS DISTORTING EXCESSIVELY.
   ELEMENT BULDGE-SPECIMEN-1.189 IS DISTORTING EXCESSIVELY.
   ELEMENT BULDGE-SPECIMEN-1.189 IS DISTORTING EXCESSIVELY.
   ELEMENT BULDGE-SPECIMEN-1.189 IS DISTORTING EXCESSIVELY.
   ELEMENT BULDGE-SPECIMEN-1.194 IS DISTORTING EXCESSIVELY.
   ELEMENT BULDGE-SPECIMEN-1.199 IS DISTORTING EXCESSIVELY.
   ELEMENT BULDGE-SPECIMEN-1.199 IS DISTORTING EXCESSIVELY.
   ELEMENT BULDGE-SPECIMEN-1.199 IS DISTORTING EXCESSIVELY.
   ELEMENT BULDGE-SPECIMEN-1.203 IS DISTORTING EXCESSIVELY.
   ELEMENT BULDGE-SPECIMEN-1.203 IS DISTORTING EXCESSIVELY.
   ELEMENT BULDGE-SPECIMEN-1.203 IS DISTORTING EXCESSIVELY.
   ELEMENT BULDGE-SPECIMEN-1.204 IS DISTORTING EXCESSIVELY.
   ELEMENT BULDGE-SPECIMEN-1.1866 IS DISTORTING EXCESSIVELY.
   ELEMENT BULDGE-SPECIMEN-1.1883 IS DISTORTING EXCESSIVELY.
   ELEMENT BULDGE-SPECIMEN-1.1883 IS DISTORTING EXCESSIVELY.
   ELEMENT BULDGE-SPECIMEN-1.1885 IS DISTORTING EXCESSIVELY.
   ELEMENT BULDGE-SPECIMEN-1.1885 IS DISTORTING EXCESSIVELY.
   ELEMENT BULDGE-SPECIMEN-1.1926 IS DISTORTING EXCESSIVELY.
   ELEMENT BULDGE-SPECIMEN-1.1927 IS DISTORTING EXCESSIVELY.
   ELEMENT BULDGE-SPECIMEN-1.1927 IS DISTORTING EXCESSIVELY.
   ELEMENT BULDGE-SPECIMEN-1.1927 IS DISTORTING EXCESSIVELY.
   ELEMENT BULDGE-SPECIMEN-1.1928 IS DISTORTING EXCESSIVELY.
   ELEMENT BULDGE-SPECIMEN-1.1928 IS DISTORTING EXCESSIVELY.
   ELEMENT BULDGE-SPECIMEN-1.1928 IS DISTORTING EXCESSIVELY.
   ELEMENT BULDGE-SPECIMEN-1.1929 IS DISTORTING EXCESSIVELY.
   ELEMENT BULDGE-SPECIMEN-1.1933 IS DISTORTING EXCESSIVELY.
   ELEMENT BULDGE-SPECIMEN-1.1938 IS DISTORTING EXCESSIVELY.
   ELEMENT BULDGE-SPECIMEN-1.1946 IS DISTORTING EXCESSIVELY.
   ELEMENT BULDGE-SPECIMEN-1.1956 IS DISTORTING EXCESSIVELY.
   ELEMENT BULDGE-SPECIMEN-1.1971 IS DISTORTING EXCESSIVELY.
   ELEMENT BULDGE-SPECIMEN-1.1973 IS DISTORTING EXCESSIVELY.
   ELEMENT BULDGE-SPECIMEN-1.1973 IS DISTORTING EXCESSIVELY.
   ELEMENT BULDGE-SPECIMEN-1.1993 IS DISTORTING EXCESSIVELY.
   ELEMENT BULDGE-SPECIMEN-1.1993 IS DISTORTING EXCESSIVELY.
   ELEMENT BULDGE-SPECIMEN-1.1994 IS DISTORTING EXCESSIVELY.
   ELEMENT BULDGE-SPECIMEN-1.1994 IS DISTORTING EXCESSIVELY.
   ELEMENT BULDGE-SPECIMEN-1.1994 IS DISTORTING EXCESSIVELY.
   ELEMENT BULDGE-SPECIMEN-1.2003 IS DISTORTING EXCESSIVELY.
   ELEMENT BULDGE-SPECIMEN-1.2033 IS DISTORTING EXCESSIVELY.
   ELEMENT BULDGE-SPECIMEN-1.2058 IS DISTORTING EXCESSIVELY.
   ELEMENT BULDGE-SPECIMEN-1.2069 IS DISTORTING EXCESSIVELY.
   ELEMENT BULDGE-SPECIMEN-1.2073 IS DISTORTING EXCESSIVELY.
   ELEMENT BULDGE-SPECIMEN-1.2075 IS DISTORTING EXCESSIVELY.
   ELEMENT BULDGE-SPECIMEN-1.2075 IS DISTORTING EXCESSIVELY.
   ELEMENT BULDGE-SPECIMEN-1.2075 IS DISTORTING EXCESSIVELY.
   ELEMENT BULDGE-SPECIMEN-1.2075 IS DISTORTING EXCESSIVELY.
   ELEMENT BULDGE-SPECIMEN-1.851 IS DISTORTING EXCESSIVELY.
   ELEMENT BULDGE-SPECIMEN-1.851 IS DISTORTING EXCESSIVELY.
   ELEMENT BULDGE-SPECIMEN-1.851 IS DISTORTING EXCESSIVELY.
   ELEMENT BULDGE-SPECIMEN-1.851 IS DISTORTING EXCESSIVELY.
   ELEMENT BULDGE-SPECIMEN-1.852 IS DISTORTING EXCESSIVELY.
   ELEMENT BULDGE-SPECIMEN-1.857 IS DISTORTING EXCESSIVELY.
   ELEMENT BULDGE-SPECIMEN-1.857 IS DISTORTING EXCESSIVELY.
   ELEMENT BULDGE-SPECIMEN-1.860 IS DISTORTING EXCESSIVELY.
   ELEMENT BULDGE-SPECIMEN-1.860 IS DISTORTING EXCESSIVELY.
   ELEMENT BULDGE-SPECIMEN-1.862 IS DISTORTING EXCESSIVELY.
   ELEMENT BULDGE-SPECIMEN-1.862 IS DISTORTING EXCESSIVELY.
   ELEMENT BULDGE-SPECIMEN-1.868 IS DISTORTING EXCESSIVELY.
   ELEMENT BULDGE-SPECIMEN-1.868 IS DISTORTING EXCESSIVELY.
   ELEMENT BULDGE-SPECIMEN-1.869 IS DISTORTING EXCESSIVELY.
   ELEMENT BULDGE-SPECIMEN-1.875 IS DISTORTING EXCESSIVELY.
   ELEMENT BULDGE-SPECIMEN-1.875 IS DISTORTING EXCESSIVELY.
   ELEMENT BULDGE-SPECIMEN-1.890 IS DISTORTING EXCESSIVELY.
   ELEMENT BULDGE-SPECIMEN-1.890 IS DISTORTING EXCESSIVELY.
   ELEMENT BULDGE-SPECIMEN-1.891 IS DISTORTING EXCESSIVELY.
   ELEMENT BULDGE-SPECIMEN-1.891 IS DISTORTING EXCESSIVELY.
   ELEMENT BULDGE-SPECIMEN-1.892 IS DISTORTING EXCESSIVELY.
   ELEMENT BULDGE-SPECIMEN-1.899 IS DISTORTING EXCESSIVELY.
   ELEMENT BULDGE-SPECIMEN-1.899 IS DISTORTING EXCESSIVELY.
   ELEMENT BULDGE-SPECIMEN-1.899 IS DISTORTING EXCESSIVELY.
   ELEMENT BULDGE-SPECIMEN-1.899 IS DISTORTING EXCESSIVELY.
   ELEMENT BULDGE-SPECIMEN-1.906 IS DISTORTING EXCESSIVELY.
   ELEMENT BULDGE-SPECIMEN-1.909 IS DISTORTING EXCESSIVELY.
   ELEMENT BULDGE-SPECIMEN-1.909 IS DISTORTING EXCESSIVELY.
   ELEMENT BULDGE-SPECIMEN-1.909 IS DISTORTING EXCESSIVELY.
   ELEMENT BULDGE-SPECIMEN-1.909 IS DISTORTING EXCESSIVELY.
   ELEMENT BULDGE-SPECIMEN-1.930 IS DISTORTING EXCESSIVELY.
   ELEMENT BULDGE-SPECIMEN-1.930 IS DISTORTING EXCESSIVELY.
   ELEMENT BULDGE-SPECIMEN-1.934 IS DISTORTING EXCESSIVELY.
   ELEMENT BULDGE-SPECIMEN-1.934 IS DISTORTING EXCESSIVELY.
   ELEMENT BULDGE-SPECIMEN-1.934 IS DISTORTING EXCESSIVELY.
   ELEMENT BULDGE-SPECIMEN-1.936 IS DISTORTING EXCESSIVELY.
   ELEMENT BULDGE-SPECIMEN-1.948 IS DISTORTING EXCESSIVELY.
   ELEMENT BULDGE-SPECIMEN-1.960 IS DISTORTING EXCESSIVELY.
   ELEMENT BULDGE-SPECIMEN-1.960 IS DISTORTING EXCESSIVELY.
   ELEMENT BULDGE-SPECIMEN-1.965 IS DISTORTING EXCESSIVELY.
   ELEMENT BULDGE-SPECIMEN-1.965 IS DISTORTING EXCESSIVELY.
   ELEMENT BULDGE-SPECIMEN-1.984 IS DISTORTING EXCESSIVELY.
   ELEMENT BULDGE-SPECIMEN-1.993 IS DISTORTING EXCESSIVELY.
   ELEMENT BULDGE-SPECIMEN-1.993 IS DISTORTING EXCESSIVELY.
   ELEMENT BULDGE-SPECIMEN-1.994 IS DISTORTING EXCESSIVELY.
   ELEMENT BULDGE-SPECIMEN-1.1004 IS DISTORTING EXCESSIVELY.
   ELEMENT BULDGE-SPECIMEN-1.1013 IS DISTORTING EXCESSIVELY.
   ELEMENT BULDGE-SPECIMEN-1.1026 IS DISTORTING EXCESSIVELY.
   ELEMENT BULDGE-SPECIMEN-1.1026 IS DISTORTING EXCESSIVELY.
   ELEMENT BULDGE-SPECIMEN-1.1030 IS DISTORTING EXCESSIVELY.
   ELEMENT BULDGE-SPECIMEN-1.1031 IS DISTORTING EXCESSIVELY.
   ELEMENT BULDGE-SPECIMEN-1.1031 IS DISTORTING EXCESSIVELY.
   ELEMENT BULDGE-SPECIMEN-1.1032 IS DISTORTING EXCESSIVELY.
   ELEMENT BULDGE-SPECIMEN-1.1032 IS DISTORTING EXCESSIVELY.
   ELEMENT BULDGE-SPECIMEN-1.1032 IS DISTORTING EXCESSIVELY.
   ELEMENT BULDGE-SPECIMEN-1.418 IS DISTORTING EXCESSIVELY.
   ELEMENT BULDGE-SPECIMEN-1.418 IS DISTORTING EXCESSIVELY.
   ELEMENT BULDGE-SPECIMEN-1.418 IS DISTORTING EXCESSIVELY.
   ELEMENT BULDGE-SPECIMEN-1.422 IS DISTORTING EXCESSIVELY.
   ELEMENT BULDGE-SPECIMEN-1.423 IS DISTORTING EXCESSIVELY.
   ELEMENT BULDGE-SPECIMEN-1.434 IS DISTORTING EXCESSIVELY.
   ELEMENT BULDGE-SPECIMEN-1.434 IS DISTORTING EXCESSIVELY.
   ELEMENT BULDGE-SPECIMEN-1.434 IS DISTORTING EXCESSIVELY.
   ELEMENT BULDGE-SPECIMEN-1.458 IS DISTORTING EXCESSIVELY.
   ELEMENT BULDGE-SPECIMEN-1.460 IS DISTORTING EXCESSIVELY.
   ELEMENT BULDGE-SPECIMEN-1.460 IS DISTORTING EXCESSIVELY.
   ELEMENT BULDGE-SPECIMEN-1.460 IS DISTORTING EXCESSIVELY.
   ELEMENT BULDGE-SPECIMEN-1.460 IS DISTORTING EXCESSIVELY.
   ELEMENT BULDGE-SPECIMEN-1.462 IS DISTORTING EXCESSIVELY.
   ELEMENT BULDGE-SPECIMEN-1.463 IS DISTORTING EXCESSIVELY.
   ELEMENT BULDGE-SPECIMEN-1.464 IS DISTORTING EXCESSIVELY.
   ELEMENT BULDGE-SPECIMEN-1.464 IS DISTORTING EXCESSIVELY.
   ELEMENT BULDGE-SPECIMEN-1.464 IS DISTORTING EXCESSIVELY.
   ELEMENT BULDGE-SPECIMEN-1.464 IS DISTORTING EXCESSIVELY.
   ELEMENT BULDGE-SPECIMEN-1.480 IS DISTORTING EXCESSIVELY.
   ELEMENT BULDGE-SPECIMEN-1.484 IS DISTORTING EXCESSIVELY.
   ELEMENT BULDGE-SPECIMEN-1.484 IS DISTORTING EXCESSIVELY.
   ELEMENT BULDGE-SPECIMEN-1.484 IS DISTORTING EXCESSIVELY.
   ELEMENT BULDGE-SPECIMEN-1.492 IS DISTORTING EXCESSIVELY.
   ELEMENT BULDGE-SPECIMEN-1.492 IS DISTORTING EXCESSIVELY.
   ELEMENT BULDGE-SPECIMEN-1.496 IS DISTORTING EXCESSIVELY.
   ELEMENT BULDGE-SPECIMEN-1.497 IS DISTORTING EXCESSIVELY.
   ELEMENT BULDGE-SPECIMEN-1.497 IS DISTORTING EXCESSIVELY.
   ELEMENT BULDGE-SPECIMEN-1.498 IS DISTORTING EXCESSIVELY.
   ELEMENT BULDGE-SPECIMEN-1.498 IS DISTORTING EXCESSIVELY.
   ELEMENT BULDGE-SPECIMEN-1.500 IS DISTORTING EXCESSIVELY.
   ELEMENT BULDGE-SPECIMEN-1.503 IS DISTORTING EXCESSIVELY.
   ELEMENT BULDGE-SPECIMEN-1.529 IS DISTORTING EXCESSIVELY.
   ELEMENT BULDGE-SPECIMEN-1.529 IS DISTORTING EXCESSIVELY.
   ELEMENT BULDGE-SPECIMEN-1.529 IS DISTORTING EXCESSIVELY.
   ELEMENT BULDGE-SPECIMEN-1.541 IS DISTORTING EXCESSIVELY.
   ELEMENT BULDGE-SPECIMEN-1.541 IS DISTORTING EXCESSIVELY.
   ELEMENT BULDGE-SPECIMEN-1.541 IS DISTORTING EXCESSIVELY.
   ELEMENT BULDGE-SPECIMEN-1.543 IS DISTORTING EXCESSIVELY.
   ELEMENT BULDGE-SPECIMEN-1.543 IS DISTORTING EXCESSIVELY.
   ELEMENT BULDGE-SPECIMEN-1.544 IS DISTORTING EXCESSIVELY.
   ELEMENT BULDGE-SPECIMEN-1.554 IS DISTORTING EXCESSIVELY.
   ELEMENT BULDGE-SPECIMEN-1.566 IS DISTORTING EXCESSIVELY.
   ELEMENT BULDGE-SPECIMEN-1.566 IS DISTORTING EXCESSIVELY.
   ELEMENT BULDGE-SPECIMEN-1.567 IS DISTORTING EXCESSIVELY.
   ELEMENT BULDGE-SPECIMEN-1.568 IS DISTORTING EXCESSIVELY.
   ELEMENT BULDGE-SPECIMEN-1.568 IS DISTORTING EXCESSIVELY.
   ELEMENT BULDGE-SPECIMEN-1.568 IS DISTORTING EXCESSIVELY.
   ELEMENT BULDGE-SPECIMEN-1.569 IS DISTORTING EXCESSIVELY.
   ELEMENT BULDGE-SPECIMEN-1.571 IS DISTORTING EXCESSIVELY.
   ELEMENT BULDGE-SPECIMEN-1.571 IS DISTORTING EXCESSIVELY.
   ELEMENT BULDGE-SPECIMEN-1.587 IS DISTORTING EXCESSIVELY.
   ELEMENT BULDGE-SPECIMEN-1.589 IS DISTORTING EXCESSIVELY.
   ELEMENT BULDGE-SPECIMEN-1.589 IS DISTORTING EXCESSIVELY.
   ELEMENT BULDGE-SPECIMEN-1.594 IS DISTORTING EXCESSIVELY.
   ELEMENT BULDGE-SPECIMEN-1.594 IS DISTORTING EXCESSIVELY.
   ELEMENT BULDGE-SPECIMEN-1.594 IS DISTORTING EXCESSIVELY.
   ELEMENT BULDGE-SPECIMEN-1.595 IS DISTORTING EXCESSIVELY.
   ELEMENT BULDGE-SPECIMEN-1.595 IS DISTORTING EXCESSIVELY.
   ELEMENT BULDGE-SPECIMEN-1.596 IS DISTORTING EXCESSIVELY.
   ELEMENT BULDGE-SPECIMEN-1.596 IS DISTORTING EXCESSIVELY.
   ELEMENT BULDGE-SPECIMEN-1.599 IS DISTORTING EXCESSIVELY.
   ELEMENT BULDGE-SPECIMEN-1.211 IS DISTORTING EXCESSIVELY.
   ELEMENT BULDGE-SPECIMEN-1.211 IS DISTORTING EXCESSIVELY.
   ELEMENT BULDGE-SPECIMEN-1.211 IS DISTORTING EXCESSIVELY.
   ELEMENT BULDGE-SPECIMEN-1.215 IS DISTORTING EXCESSIVELY.
   ELEMENT BULDGE-SPECIMEN-1.218 IS DISTORTING EXCESSIVELY.
   ELEMENT BULDGE-SPECIMEN-1.222 IS DISTORTING EXCESSIVELY.
   ELEMENT BULDGE-SPECIMEN-1.222 IS DISTORTING EXCESSIVELY.
   ELEMENT BULDGE-SPECIMEN-1.227 IS DISTORTING EXCESSIVELY.
   ELEMENT BULDGE-SPECIMEN-1.227 IS DISTORTING EXCESSIVELY.
   ELEMENT BULDGE-SPECIMEN-1.228 IS DISTORTING EXCESSIVELY.
   ELEMENT BULDGE-SPECIMEN-1.228 IS DISTORTING EXCESSIVELY.
   ELEMENT BULDGE-SPECIMEN-1.228 IS DISTORTING EXCESSIVELY.
   ELEMENT BULDGE-SPECIMEN-1.234 IS DISTORTING EXCESSIVELY.
   ELEMENT BULDGE-SPECIMEN-1.234 IS DISTORTING EXCESSIVELY.
   ELEMENT BULDGE-SPECIMEN-1.238 IS DISTORTING EXCESSIVELY.
   ELEMENT BULDGE-SPECIMEN-1.238 IS DISTORTING EXCESSIVELY.
   ELEMENT BULDGE-SPECIMEN-1.240 IS DISTORTING EXCESSIVELY.
   ELEMENT BULDGE-SPECIMEN-1.241 IS DISTORTING EXCESSIVELY.
   ELEMENT BULDGE-SPECIMEN-1.242 IS DISTORTING EXCESSIVELY.
   ELEMENT BULDGE-SPECIMEN-1.247 IS DISTORTING EXCESSIVELY.
   ELEMENT BULDGE-SPECIMEN-1.248 IS DISTORTING EXCESSIVELY.
   ELEMENT BULDGE-SPECIMEN-1.253 IS DISTORTING EXCESSIVELY.
   ELEMENT BULDGE-SPECIMEN-1.254 IS DISTORTING EXCESSIVELY.
   ELEMENT BULDGE-SPECIMEN-1.260 IS DISTORTING EXCESSIVELY.
   ELEMENT BULDGE-SPECIMEN-1.263 IS DISTORTING EXCESSIVELY.
   ELEMENT BULDGE-SPECIMEN-1.263 IS DISTORTING EXCESSIVELY.
   ELEMENT BULDGE-SPECIMEN-1.265 IS DISTORTING EXCESSIVELY.
   ELEMENT BULDGE-SPECIMEN-1.265 IS DISTORTING EXCESSIVELY.
   ELEMENT BULDGE-SPECIMEN-1.265 IS DISTORTING EXCESSIVELY.
   ELEMENT BULDGE-SPECIMEN-1.265 IS DISTORTING EXCESSIVELY.
   ELEMENT BULDGE-SPECIMEN-1.287 IS DISTORTING EXCESSIVELY.
   ELEMENT BULDGE-SPECIMEN-1.289 IS DISTORTING EXCESSIVELY.
   ELEMENT BULDGE-SPECIMEN-1.290 IS DISTORTING EXCESSIVELY.
   ELEMENT BULDGE-SPECIMEN-1.290 IS DISTORTING EXCESSIVELY.
   ELEMENT BULDGE-SPECIMEN-1.292 IS DISTORTING EXCESSIVELY.
   ELEMENT BULDGE-SPECIMEN-1.292 IS DISTORTING EXCESSIVELY.
   ELEMENT BULDGE-SPECIMEN-1.294 IS DISTORTING EXCESSIVELY.
   ELEMENT BULDGE-SPECIMEN-1.294 IS DISTORTING EXCESSIVELY.
   ELEMENT BULDGE-SPECIMEN-1.294 IS DISTORTING EXCESSIVELY.
   ELEMENT BULDGE-SPECIMEN-1.295 IS DISTORTING EXCESSIVELY.
   ELEMENT BULDGE-SPECIMEN-1.295 IS DISTORTING EXCESSIVELY.
   ELEMENT BULDGE-SPECIMEN-1.296 IS DISTORTING EXCESSIVELY.
   ELEMENT BULDGE-SPECIMEN-1.297 IS DISTORTING EXCESSIVELY.
   ELEMENT BULDGE-SPECIMEN-1.297 IS DISTORTING EXCESSIVELY.
   ELEMENT BULDGE-SPECIMEN-1.297 IS DISTORTING EXCESSIVELY.
   ELEMENT BULDGE-SPECIMEN-1.298 IS DISTORTING EXCESSIVELY.
   ELEMENT BULDGE-SPECIMEN-1.302 IS DISTORTING EXCESSIVELY.
   ELEMENT BULDGE-SPECIMEN-1.303 IS DISTORTING EXCESSIVELY.
   ELEMENT BULDGE-SPECIMEN-1.303 IS DISTORTING EXCESSIVELY.
   ELEMENT BULDGE-SPECIMEN-1.304 IS DISTORTING EXCESSIVELY.
   ELEMENT BULDGE-SPECIMEN-1.305 IS DISTORTING EXCESSIVELY.
   ELEMENT BULDGE-SPECIMEN-1.305 IS DISTORTING EXCESSIVELY.
   ELEMENT BULDGE-SPECIMEN-1.305 IS DISTORTING EXCESSIVELY.
   ELEMENT BULDGE-SPECIMEN-1.307 IS DISTORTING EXCESSIVELY.
   ELEMENT BULDGE-SPECIMEN-1.307 IS DISTORTING EXCESSIVELY.
   ELEMENT BULDGE-SPECIMEN-1.311 IS DISTORTING EXCESSIVELY.
   ELEMENT BULDGE-SPECIMEN-1.316 IS DISTORTING EXCESSIVELY.
   ELEMENT BULDGE-SPECIMEN-1.316 IS DISTORTING EXCESSIVELY.
   ELEMENT BULDGE-SPECIMEN-1.316 IS DISTORTING EXCESSIVELY.
   ELEMENT BULDGE-SPECIMEN-1.321 IS DISTORTING EXCESSIVELY.
   ELEMENT BULDGE-SPECIMEN-1.323 IS DISTORTING EXCESSIVELY.
   ELEMENT BULDGE-SPECIMEN-1.323 IS DISTORTING EXCESSIVELY.
   ELEMENT BULDGE-SPECIMEN-1.323 IS DISTORTING EXCESSIVELY.
   ELEMENT BULDGE-SPECIMEN-1.325 IS DISTORTING EXCESSIVELY.
   ELEMENT BULDGE-SPECIMEN-1.326 IS DISTORTING EXCESSIVELY.
   ELEMENT BULDGE-SPECIMEN-1.326 IS DISTORTING EXCESSIVELY.
   ELEMENT BULDGE-SPECIMEN-1.326 IS DISTORTING EXCESSIVELY.
   ELEMENT BULDGE-SPECIMEN-1.327 IS DISTORTING EXCESSIVELY.
   ELEMENT BULDGE-SPECIMEN-1.331 IS DISTORTING EXCESSIVELY.
   ELEMENT BULDGE-SPECIMEN-1.332 IS DISTORTING EXCESSIVELY.
   ELEMENT BULDGE-SPECIMEN-1.332 IS DISTORTING EXCESSIVELY.
   ELEMENT BULDGE-SPECIMEN-1.334 IS DISTORTING EXCESSIVELY.
   ELEMENT BULDGE-SPECIMEN-1.339 IS DISTORTING EXCESSIVELY.
   ELEMENT BULDGE-SPECIMEN-1.340 IS DISTORTING EXCESSIVELY.
   ELEMENT BULDGE-SPECIMEN-1.346 IS DISTORTING EXCESSIVELY.
   ELEMENT BULDGE-SPECIMEN-1.346 IS DISTORTING EXCESSIVELY.
   ELEMENT BULDGE-SPECIMEN-1.346 IS DISTORTING EXCESSIVELY.
   ELEMENT BULDGE-SPECIMEN-1.347 IS DISTORTING EXCESSIVELY.
   ELEMENT BULDGE-SPECIMEN-1.347 IS DISTORTING EXCESSIVELY.
   ELEMENT BULDGE-SPECIMEN-1.349 IS DISTORTING EXCESSIVELY.
   ELEMENT BULDGE-SPECIMEN-1.349 IS DISTORTING EXCESSIVELY.
   ELEMENT BULDGE-SPECIMEN-1.356 IS DISTORTING EXCESSIVELY.
   ELEMENT BULDGE-SPECIMEN-1.356 IS DISTORTING EXCESSIVELY.
   ELEMENT BULDGE-SPECIMEN-1.356 IS DISTORTING EXCESSIVELY.
   ELEMENT BULDGE-SPECIMEN-1.367 IS DISTORTING EXCESSIVELY.
   ELEMENT BULDGE-SPECIMEN-1.367 IS DISTORTING EXCESSIVELY.
   ELEMENT BULDGE-SPECIMEN-1.367 IS DISTORTING EXCESSIVELY.
   ELEMENT BULDGE-SPECIMEN-1.367 IS DISTORTING EXCESSIVELY.
   ELEMENT BULDGE-SPECIMEN-1.368 IS DISTORTING EXCESSIVELY.
   ELEMENT BULDGE-SPECIMEN-1.372 IS DISTORTING EXCESSIVELY.
   ELEMENT BULDGE-SPECIMEN-1.378 IS DISTORTING EXCESSIVELY.
   ELEMENT BULDGE-SPECIMEN-1.378 IS DISTORTING EXCESSIVELY.
   ELEMENT BULDGE-SPECIMEN-1.380 IS DISTORTING EXCESSIVELY.
   ELEMENT BULDGE-SPECIMEN-1.382 IS DISTORTING EXCESSIVELY.
   ELEMENT BULDGE-SPECIMEN-1.385 IS DISTORTING EXCESSIVELY.
   ELEMENT BULDGE-SPECIMEN-1.385 IS DISTORTING EXCESSIVELY.
   ELEMENT BULDGE-SPECIMEN-1.385 IS DISTORTING EXCESSIVELY.
   ELEMENT BULDGE-SPECIMEN-1.387 IS DISTORTING EXCESSIVELY.
   ELEMENT BULDGE-SPECIMEN-1.389 IS DISTORTING EXCESSIVELY.
   ELEMENT BULDGE-SPECIMEN-1.389 IS DISTORTING EXCESSIVELY.
   ELEMENT BULDGE-SPECIMEN-1.389 IS DISTORTING EXCESSIVELY.
   ELEMENT BULDGE-SPECIMEN-1.391 IS DISTORTING EXCESSIVELY.
   ELEMENT BULDGE-SPECIMEN-1.391 IS DISTORTING EXCESSIVELY.
   ELEMENT BULDGE-SPECIMEN-1.395 IS DISTORTING EXCESSIVELY.
   ELEMENT BULDGE-SPECIMEN-1.396 IS DISTORTING EXCESSIVELY.
   ELEMENT BULDGE-SPECIMEN-1.398 IS DISTORTING EXCESSIVELY.
   ELEMENT BULDGE-SPECIMEN-1.401 IS DISTORTING EXCESSIVELY.
   ELEMENT BULDGE-SPECIMEN-1.403 IS DISTORTING EXCESSIVELY.
   ELEMENT BULDGE-SPECIMEN-1.403 IS DISTORTING EXCESSIVELY.
   ELEMENT BULDGE-SPECIMEN-1.408 IS DISTORTING EXCESSIVELY.
   ELEMENT BULDGE-SPECIMEN-1.408 IS DISTORTING EXCESSIVELY.
   ELEMENT BULDGE-SPECIMEN-1.408 IS DISTORTING EXCESSIVELY.
   ELEMENT BULDGE-SPECIMEN-1.411 IS DISTORTING EXCESSIVELY.
   ELEMENT BULDGE-SPECIMEN-1.413 IS DISTORTING EXCESSIVELY.
   ELEMENT BULDGE-SPECIMEN-1.413 IS DISTORTING EXCESSIVELY.
   ELEMENT BULDGE-SPECIMEN-1.413 IS DISTORTING EXCESSIVELY.
   ELEMENT BULDGE-SPECIMEN-1.622 IS DISTORTING EXCESSIVELY.
   ELEMENT BULDGE-SPECIMEN-1.635 IS DISTORTING EXCESSIVELY.
   ELEMENT BULDGE-SPECIMEN-1.636 IS DISTORTING EXCESSIVELY.
   ELEMENT BULDGE-SPECIMEN-1.647 IS DISTORTING EXCESSIVELY.
   ELEMENT BULDGE-SPECIMEN-1.648 IS DISTORTING EXCESSIVELY.
   ELEMENT BULDGE-SPECIMEN-1.650 IS DISTORTING EXCESSIVELY.
   ELEMENT BULDGE-SPECIMEN-1.650 IS DISTORTING EXCESSIVELY.
   ELEMENT BULDGE-SPECIMEN-1.650 IS DISTORTING EXCESSIVELY.
   ELEMENT BULDGE-SPECIMEN-1.650 IS DISTORTING EXCESSIVELY.
   ELEMENT BULDGE-SPECIMEN-1.662 IS DISTORTING EXCESSIVELY.
   ELEMENT BULDGE-SPECIMEN-1.662 IS DISTORTING EXCESSIVELY.
   ELEMENT BULDGE-SPECIMEN-1.662 IS DISTORTING EXCESSIVELY.
   ELEMENT BULDGE-SPECIMEN-1.686 IS DISTORTING EXCESSIVELY.
   ELEMENT BULDGE-SPECIMEN-1.706 IS DISTORTING EXCESSIVELY.
   ELEMENT BULDGE-SPECIMEN-1.706 IS DISTORTING EXCESSIVELY.
   ELEMENT BULDGE-SPECIMEN-1.706 IS DISTORTING EXCESSIVELY.
   ELEMENT BULDGE-SPECIMEN-1.708 IS DISTORTING EXCESSIVELY.
   ELEMENT BULDGE-SPECIMEN-1.735 IS DISTORTING EXCESSIVELY.
   ELEMENT BULDGE-SPECIMEN-1.736 IS DISTORTING EXCESSIVELY.
   ELEMENT BULDGE-SPECIMEN-1.736 IS DISTORTING EXCESSIVELY.
   ELEMENT BULDGE-SPECIMEN-1.801 IS DISTORTING EXCESSIVELY.
   ELEMENT BULDGE-SPECIMEN-1.822 IS DISTORTING EXCESSIVELY.
   ELEMENT BULDGE-SPECIMEN-1.1453 IS DISTORTING EXCESSIVELY.
   ELEMENT BULDGE-SPECIMEN-1.1465 IS DISTORTING EXCESSIVELY.
   ELEMENT BULDGE-SPECIMEN-1.1468 IS DISTORTING EXCESSIVELY.
   ELEMENT BULDGE-SPECIMEN-1.1469 IS DISTORTING EXCESSIVELY.
   ELEMENT BULDGE-SPECIMEN-1.1479 IS DISTORTING EXCESSIVELY.
   ELEMENT BULDGE-SPECIMEN-1.1479 IS DISTORTING EXCESSIVELY.
   ELEMENT BULDGE-SPECIMEN-1.1480 IS DISTORTING EXCESSIVELY.
   ELEMENT BULDGE-SPECIMEN-1.1480 IS DISTORTING EXCESSIVELY.
   ELEMENT BULDGE-SPECIMEN-1.1480 IS DISTORTING EXCESSIVELY.
   ELEMENT BULDGE-SPECIMEN-1.1480 IS DISTORTING EXCESSIVELY.
   ELEMENT BULDGE-SPECIMEN-1.1487 IS DISTORTING EXCESSIVELY.
   ELEMENT BULDGE-SPECIMEN-1.1487 IS DISTORTING EXCESSIVELY.
   ELEMENT BULDGE-SPECIMEN-1.1491 IS DISTORTING EXCESSIVELY.
   ELEMENT BULDGE-SPECIMEN-1.1493 IS DISTORTING EXCESSIVELY.
   ELEMENT BULDGE-SPECIMEN-1.1497 IS DISTORTING EXCESSIVELY.
   ELEMENT BULDGE-SPECIMEN-1.1497 IS DISTORTING EXCESSIVELY.
   ELEMENT BULDGE-SPECIMEN-1.1497 IS DISTORTING EXCESSIVELY.
   ELEMENT BULDGE-SPECIMEN-1.1500 IS DISTORTING EXCESSIVELY.
   ELEMENT BULDGE-SPECIMEN-1.1504 IS DISTORTING EXCESSIVELY.
   ELEMENT BULDGE-SPECIMEN-1.1509 IS DISTORTING EXCESSIVELY.
   ELEMENT BULDGE-SPECIMEN-1.1511 IS DISTORTING EXCESSIVELY.
   ELEMENT BULDGE-SPECIMEN-1.1511 IS DISTORTING EXCESSIVELY.
   ELEMENT BULDGE-SPECIMEN-1.1514 IS DISTORTING EXCESSIVELY.
   ELEMENT BULDGE-SPECIMEN-1.1515 IS DISTORTING EXCESSIVELY.
   ELEMENT BULDGE-SPECIMEN-1.1515 IS DISTORTING EXCESSIVELY.
   ELEMENT BULDGE-SPECIMEN-1.1515 IS DISTORTING EXCESSIVELY.
   ELEMENT BULDGE-SPECIMEN-1.1515 IS DISTORTING EXCESSIVELY.
   ELEMENT BULDGE-SPECIMEN-1.1516 IS DISTORTING EXCESSIVELY.
   ELEMENT BULDGE-SPECIMEN-1.1519 IS DISTORTING EXCESSIVELY.
   ELEMENT BULDGE-SPECIMEN-1.1519 IS DISTORTING EXCESSIVELY.
   ELEMENT BULDGE-SPECIMEN-1.1520 IS DISTORTING EXCESSIVELY.
   ELEMENT BULDGE-SPECIMEN-1.1524 IS DISTORTING EXCESSIVELY.
   ELEMENT BULDGE-SPECIMEN-1.1524 IS DISTORTING EXCESSIVELY.
   ELEMENT BULDGE-SPECIMEN-1.1536 IS DISTORTING EXCESSIVELY.
   ELEMENT BULDGE-SPECIMEN-1.1544 IS DISTORTING EXCESSIVELY.
   ELEMENT BULDGE-SPECIMEN-1.1545 IS DISTORTING EXCESSIVELY.
   ELEMENT BULDGE-SPECIMEN-1.1545 IS DISTORTING EXCESSIVELY.
   ELEMENT BULDGE-SPECIMEN-1.1545 IS DISTORTING EXCESSIVELY.
   ELEMENT BULDGE-SPECIMEN-1.1558 IS DISTORTING EXCESSIVELY.
   ELEMENT BULDGE-SPECIMEN-1.1566 IS DISTORTING EXCESSIVELY.
   ELEMENT BULDGE-SPECIMEN-1.1567 IS DISTORTING EXCESSIVELY.
   ELEMENT BULDGE-SPECIMEN-1.1567 IS DISTORTING EXCESSIVELY.
   ELEMENT BULDGE-SPECIMEN-1.1567 IS DISTORTING EXCESSIVELY.
   ELEMENT BULDGE-SPECIMEN-1.1568 IS DISTORTING EXCESSIVELY.
   ELEMENT BULDGE-SPECIMEN-1.1568 IS DISTORTING EXCESSIVELY.
   ELEMENT BULDGE-SPECIMEN-1.1582 IS DISTORTING EXCESSIVELY.
   ELEMENT BULDGE-SPECIMEN-1.1583 IS DISTORTING EXCESSIVELY.
   ELEMENT BULDGE-SPECIMEN-1.1583 IS DISTORTING EXCESSIVELY.
   ELEMENT BULDGE-SPECIMEN-1.1583 IS DISTORTING EXCESSIVELY.
   ELEMENT BULDGE-SPECIMEN-1.1584 IS DISTORTING EXCESSIVELY.
   ELEMENT BULDGE-SPECIMEN-1.1584 IS DISTORTING EXCESSIVELY.
   ELEMENT BULDGE-SPECIMEN-1.1584 IS DISTORTING EXCESSIVELY.
   ELEMENT BULDGE-SPECIMEN-1.1585 IS DISTORTING EXCESSIVELY.
   ELEMENT BULDGE-SPECIMEN-1.1585 IS DISTORTING EXCESSIVELY.
   ELEMENT BULDGE-SPECIMEN-1.1585 IS DISTORTING EXCESSIVELY.
   ELEMENT BULDGE-SPECIMEN-1.1586 IS DISTORTING EXCESSIVELY.
   ELEMENT BULDGE-SPECIMEN-1.1587 IS DISTORTING EXCESSIVELY.
   ELEMENT BULDGE-SPECIMEN-1.1587 IS DISTORTING EXCESSIVELY.
   ELEMENT BULDGE-SPECIMEN-1.1587 IS DISTORTING EXCESSIVELY.
   ELEMENT BULDGE-SPECIMEN-1.1597 IS DISTORTING EXCESSIVELY.
   ELEMENT BULDGE-SPECIMEN-1.1599 IS DISTORTING EXCESSIVELY.
   ELEMENT BULDGE-SPECIMEN-1.1602 IS DISTORTING EXCESSIVELY.
   ELEMENT BULDGE-SPECIMEN-1.1604 IS DISTORTING EXCESSIVELY.
   ELEMENT BULDGE-SPECIMEN-1.1604 IS DISTORTING EXCESSIVELY.
   ELEMENT BULDGE-SPECIMEN-1.1605 IS DISTORTING EXCESSIVELY.
   ELEMENT BULDGE-SPECIMEN-1.1605 IS DISTORTING EXCESSIVELY.
   ELEMENT BULDGE-SPECIMEN-1.1607 IS DISTORTING EXCESSIVELY.
   ELEMENT BULDGE-SPECIMEN-1.1618 IS DISTORTING EXCESSIVELY.
   ELEMENT BULDGE-SPECIMEN-1.1618 IS DISTORTING EXCESSIVELY.
   ELEMENT BULDGE-SPECIMEN-1.1620 IS DISTORTING EXCESSIVELY.
   ELEMENT BULDGE-SPECIMEN-1.1626 IS DISTORTING EXCESSIVELY.
   ELEMENT BULDGE-SPECIMEN-1.1626 IS DISTORTING EXCESSIVELY.
   ELEMENT BULDGE-SPECIMEN-1.1627 IS DISTORTING EXCESSIVELY.
   ELEMENT BULDGE-SPECIMEN-1.1628 IS DISTORTING EXCESSIVELY.
   ELEMENT BULDGE-SPECIMEN-1.1629 IS DISTORTING EXCESSIVELY.
   ELEMENT BULDGE-SPECIMEN-1.1630 IS DISTORTING EXCESSIVELY.
   ELEMENT BULDGE-SPECIMEN-1.1631 IS DISTORTING EXCESSIVELY.
   ELEMENT BULDGE-SPECIMEN-1.1642 IS DISTORTING EXCESSIVELY.
   ELEMENT BULDGE-SPECIMEN-1.1642 IS DISTORTING EXCESSIVELY.
   ELEMENT BULDGE-SPECIMEN-1.1642 IS DISTORTING EXCESSIVELY.
   ELEMENT BULDGE-SPECIMEN-1.1642 IS DISTORTING EXCESSIVELY.
   ELEMENT BULDGE-SPECIMEN-1.1655 IS DISTORTING EXCESSIVELY.
   ELEMENT BULDGE-SPECIMEN-1.1045 IS DISTORTING EXCESSIVELY.
   ELEMENT BULDGE-SPECIMEN-1.1045 IS DISTORTING EXCESSIVELY.
   ELEMENT BULDGE-SPECIMEN-1.1047 IS DISTORTING EXCESSIVELY.
   ELEMENT BULDGE-SPECIMEN-1.1047 IS DISTORTING EXCESSIVELY.
   ELEMENT BULDGE-SPECIMEN-1.1048 IS DISTORTING EXCESSIVELY.
   ELEMENT BULDGE-SPECIMEN-1.1048 IS DISTORTING EXCESSIVELY.
   ELEMENT BULDGE-SPECIMEN-1.1049 IS DISTORTING EXCESSIVELY.
   ELEMENT BULDGE-SPECIMEN-1.1050 IS DISTORTING EXCESSIVELY.
   ELEMENT BULDGE-SPECIMEN-1.1050 IS DISTORTING EXCESSIVELY.
   ELEMENT BULDGE-SPECIMEN-1.1050 IS DISTORTING EXCESSIVELY.
   ELEMENT BULDGE-SPECIMEN-1.1051 IS DISTORTING EXCESSIVELY.
   ELEMENT BULDGE-SPECIMEN-1.1054 IS DISTORTING EXCESSIVELY.
   ELEMENT BULDGE-SPECIMEN-1.1055 IS DISTORTING EXCESSIVELY.
   ELEMENT BULDGE-SPECIMEN-1.1056 IS DISTORTING EXCESSIVELY.
   ELEMENT BULDGE-SPECIMEN-1.1058 IS DISTORTING EXCESSIVELY.
   ELEMENT BULDGE-SPECIMEN-1.1058 IS DISTORTING EXCESSIVELY.
   ELEMENT BULDGE-SPECIMEN-1.1060 IS DISTORTING EXCESSIVELY.
   ELEMENT BULDGE-SPECIMEN-1.1060 IS DISTORTING EXCESSIVELY.
   ELEMENT BULDGE-SPECIMEN-1.1061 IS DISTORTING EXCESSIVELY.
   ELEMENT BULDGE-SPECIMEN-1.1063 IS DISTORTING EXCESSIVELY.
   ELEMENT BULDGE-SPECIMEN-1.1064 IS DISTORTING EXCESSIVELY.
   ELEMENT BULDGE-SPECIMEN-1.1064 IS DISTORTING EXCESSIVELY.
   ELEMENT BULDGE-SPECIMEN-1.1068 IS DISTORTING EXCESSIVELY.
   ELEMENT BULDGE-SPECIMEN-1.1068 IS DISTORTING EXCESSIVELY.
   ELEMENT BULDGE-SPECIMEN-1.1069 IS DISTORTING EXCESSIVELY.
   ELEMENT BULDGE-SPECIMEN-1.1069 IS DISTORTING EXCESSIVELY.
   ELEMENT BULDGE-SPECIMEN-1.1081 IS DISTORTING EXCESSIVELY.
   ELEMENT BULDGE-SPECIMEN-1.1082 IS DISTORTING EXCESSIVELY.
   ELEMENT BULDGE-SPECIMEN-1.1091 IS DISTORTING EXCESSIVELY.
   ELEMENT BULDGE-SPECIMEN-1.1095 IS DISTORTING EXCESSIVELY.
   ELEMENT BULDGE-SPECIMEN-1.1102 IS DISTORTING EXCESSIVELY.
   ELEMENT BULDGE-SPECIMEN-1.1102 IS DISTORTING EXCESSIVELY.
   ELEMENT BULDGE-SPECIMEN-1.1102 IS DISTORTING EXCESSIVELY.
   ELEMENT BULDGE-SPECIMEN-1.1102 IS DISTORTING EXCESSIVELY.
   ELEMENT BULDGE-SPECIMEN-1.1103 IS DISTORTING EXCESSIVELY.
   ELEMENT BULDGE-SPECIMEN-1.1103 IS DISTORTING EXCESSIVELY.
   ELEMENT BULDGE-SPECIMEN-1.1104 IS DISTORTING EXCESSIVELY.
   ELEMENT BULDGE-SPECIMEN-1.1105 IS DISTORTING EXCESSIVELY.
   ELEMENT BULDGE-SPECIMEN-1.1105 IS DISTORTING EXCESSIVELY.
   ELEMENT BULDGE-SPECIMEN-1.1105 IS DISTORTING EXCESSIVELY.
   ELEMENT BULDGE-SPECIMEN-1.1106 IS DISTORTING EXCESSIVELY.
   ELEMENT BULDGE-SPECIMEN-1.1106 IS DISTORTING EXCESSIVELY.
   ELEMENT BULDGE-SPECIMEN-1.1107 IS DISTORTING EXCESSIVELY.
   ELEMENT BULDGE-SPECIMEN-1.1107 IS DISTORTING EXCESSIVELY.
   ELEMENT BULDGE-SPECIMEN-1.1107 IS DISTORTING EXCESSIVELY.
   ELEMENT BULDGE-SPECIMEN-1.1109 IS DISTORTING EXCESSIVELY.
   ELEMENT BULDGE-SPECIMEN-1.1110 IS DISTORTING EXCESSIVELY.
   ELEMENT BULDGE-SPECIMEN-1.1110 IS DISTORTING EXCESSIVELY.
   ELEMENT BULDGE-SPECIMEN-1.1110 IS DISTORTING EXCESSIVELY.
   ELEMENT BULDGE-SPECIMEN-1.1112 IS DISTORTING EXCESSIVELY.
   ELEMENT BULDGE-SPECIMEN-1.1115 IS DISTORTING EXCESSIVELY.
   ELEMENT BULDGE-SPECIMEN-1.1116 IS DISTORTING EXCESSIVELY.
   ELEMENT BULDGE-SPECIMEN-1.1117 IS DISTORTING EXCESSIVELY.
   ELEMENT BULDGE-SPECIMEN-1.1117 IS DISTORTING EXCESSIVELY.
   ELEMENT BULDGE-SPECIMEN-1.1117 IS DISTORTING EXCESSIVELY.
   ELEMENT BULDGE-SPECIMEN-1.1121 IS DISTORTING EXCESSIVELY.
   ELEMENT BULDGE-SPECIMEN-1.1121 IS DISTORTING EXCESSIVELY.
   ELEMENT BULDGE-SPECIMEN-1.1133 IS DISTORTING EXCESSIVELY.
   ELEMENT BULDGE-SPECIMEN-1.1134 IS DISTORTING EXCESSIVELY.
   ELEMENT BULDGE-SPECIMEN-1.1134 IS DISTORTING EXCESSIVELY.
   ELEMENT BULDGE-SPECIMEN-1.1135 IS DISTORTING EXCESSIVELY.
   ELEMENT BULDGE-SPECIMEN-1.1137 IS DISTORTING EXCESSIVELY.
   ELEMENT BULDGE-SPECIMEN-1.1137 IS DISTORTING EXCESSIVELY.
   ELEMENT BULDGE-SPECIMEN-1.1138 IS DISTORTING EXCESSIVELY.
   ELEMENT BULDGE-SPECIMEN-1.1151 IS DISTORTING EXCESSIVELY.
   ELEMENT BULDGE-SPECIMEN-1.1151 IS DISTORTING EXCESSIVELY.
   ELEMENT BULDGE-SPECIMEN-1.1151 IS DISTORTING EXCESSIVELY.
   ELEMENT BULDGE-SPECIMEN-1.1152 IS DISTORTING EXCESSIVELY.
   ELEMENT BULDGE-SPECIMEN-1.1152 IS DISTORTING EXCESSIVELY.
   ELEMENT BULDGE-SPECIMEN-1.1154 IS DISTORTING EXCESSIVELY.
   ELEMENT BULDGE-SPECIMEN-1.1154 IS DISTORTING EXCESSIVELY.
   ELEMENT BULDGE-SPECIMEN-1.1157 IS DISTORTING EXCESSIVELY.
   ELEMENT BULDGE-SPECIMEN-1.1157 IS DISTORTING EXCESSIVELY.
   ELEMENT BULDGE-SPECIMEN-1.1157 IS DISTORTING EXCESSIVELY.
   ELEMENT BULDGE-SPECIMEN-1.1157 IS DISTORTING EXCESSIVELY.
   ELEMENT BULDGE-SPECIMEN-1.1158 IS DISTORTING EXCESSIVELY.
   ELEMENT BULDGE-SPECIMEN-1.1159 IS DISTORTING EXCESSIVELY.
   ELEMENT BULDGE-SPECIMEN-1.1160 IS DISTORTING EXCESSIVELY.
   ELEMENT BULDGE-SPECIMEN-1.1160 IS DISTORTING EXCESSIVELY.
   ELEMENT BULDGE-SPECIMEN-1.1161 IS DISTORTING EXCESSIVELY.
   ELEMENT BULDGE-SPECIMEN-1.1161 IS DISTORTING EXCESSIVELY.
   ELEMENT BULDGE-SPECIMEN-1.1161 IS DISTORTING EXCESSIVELY.
   ELEMENT BULDGE-SPECIMEN-1.1162 IS DISTORTING EXCESSIVELY.
   ELEMENT BULDGE-SPECIMEN-1.1162 IS DISTORTING EXCESSIVELY.
   ELEMENT BULDGE-SPECIMEN-1.1162 IS DISTORTING EXCESSIVELY.
   ELEMENT BULDGE-SPECIMEN-1.1164 IS DISTORTING EXCESSIVELY.
   ELEMENT BULDGE-SPECIMEN-1.1164 IS DISTORTING EXCESSIVELY.
   ELEMENT BULDGE-SPECIMEN-1.1166 IS DISTORTING EXCESSIVELY.
   ELEMENT BULDGE-SPECIMEN-1.1169 IS DISTORTING EXCESSIVELY.
   ELEMENT BULDGE-SPECIMEN-1.1169 IS DISTORTING EXCESSIVELY.
   ELEMENT BULDGE-SPECIMEN-1.1169 IS DISTORTING EXCESSIVELY.
   ELEMENT BULDGE-SPECIMEN-1.1169 IS DISTORTING EXCESSIVELY.
   ELEMENT BULDGE-SPECIMEN-1.1175 IS DISTORTING EXCESSIVELY.
   ELEMENT BULDGE-SPECIMEN-1.1175 IS DISTORTING EXCESSIVELY.
   ELEMENT BULDGE-SPECIMEN-1.1175 IS DISTORTING EXCESSIVELY.
   ELEMENT BULDGE-SPECIMEN-1.1176 IS DISTORTING EXCESSIVELY.
   ELEMENT BULDGE-SPECIMEN-1.1194 IS DISTORTING EXCESSIVELY.
   ELEMENT BULDGE-SPECIMEN-1.1194 IS DISTORTING EXCESSIVELY.
   ELEMENT BULDGE-SPECIMEN-1.1195 IS DISTORTING EXCESSIVELY.
   ELEMENT BULDGE-SPECIMEN-1.1196 IS DISTORTING EXCESSIVELY.
   ELEMENT BULDGE-SPECIMEN-1.1197 IS DISTORTING EXCESSIVELY.
   ELEMENT BULDGE-SPECIMEN-1.1198 IS DISTORTING EXCESSIVELY.
   ELEMENT BULDGE-SPECIMEN-1.1199 IS DISTORTING EXCESSIVELY.
   ELEMENT BULDGE-SPECIMEN-1.1200 IS DISTORTING EXCESSIVELY.
   ELEMENT BULDGE-SPECIMEN-1.1200 IS DISTORTING EXCESSIVELY.
   ELEMENT BULDGE-SPECIMEN-1.1201 IS DISTORTING EXCESSIVELY.
   ELEMENT BULDGE-SPECIMEN-1.1202 IS DISTORTING EXCESSIVELY.
   ELEMENT BULDGE-SPECIMEN-1.1202 IS DISTORTING EXCESSIVELY.
   ELEMENT BULDGE-SPECIMEN-1.1203 IS DISTORTING EXCESSIVELY.
   ELEMENT BULDGE-SPECIMEN-1.1206 IS DISTORTING EXCESSIVELY.
   ELEMENT BULDGE-SPECIMEN-1.1206 IS DISTORTING EXCESSIVELY.
   ELEMENT BULDGE-SPECIMEN-1.1206 IS DISTORTING EXCESSIVELY.
   ELEMENT BULDGE-SPECIMEN-1.1207 IS DISTORTING EXCESSIVELY.
   ELEMENT BULDGE-SPECIMEN-1.1207 IS DISTORTING EXCESSIVELY.
   ELEMENT BULDGE-SPECIMEN-1.1208 IS DISTORTING EXCESSIVELY.
   ELEMENT BULDGE-SPECIMEN-1.1210 IS DISTORTING EXCESSIVELY.
   ELEMENT BULDGE-SPECIMEN-1.1210 IS DISTORTING EXCESSIVELY.
   ELEMENT BULDGE-SPECIMEN-1.1210 IS DISTORTING EXCESSIVELY.
   ELEMENT BULDGE-SPECIMEN-1.1211 IS DISTORTING EXCESSIVELY.
   ELEMENT BULDGE-SPECIMEN-1.1211 IS DISTORTING EXCESSIVELY.
   ELEMENT BULDGE-SPECIMEN-1.1212 IS DISTORTING EXCESSIVELY.
   ELEMENT BULDGE-SPECIMEN-1.1212 IS DISTORTING EXCESSIVELY.
   ELEMENT BULDGE-SPECIMEN-1.1213 IS DISTORTING EXCESSIVELY.
   ELEMENT BULDGE-SPECIMEN-1.1215 IS DISTORTING EXCESSIVELY.
   ELEMENT BULDGE-SPECIMEN-1.1215 IS DISTORTING EXCESSIVELY.
   ELEMENT BULDGE-SPECIMEN-1.1216 IS DISTORTING EXCESSIVELY.
   ELEMENT BULDGE-SPECIMEN-1.1218 IS DISTORTING EXCESSIVELY.
   ELEMENT BULDGE-SPECIMEN-1.1221 IS DISTORTING EXCESSIVELY.
   ELEMENT BULDGE-SPECIMEN-1.1221 IS DISTORTING EXCESSIVELY.
   ELEMENT BULDGE-SPECIMEN-1.1221 IS DISTORTING EXCESSIVELY.
   ELEMENT BULDGE-SPECIMEN-1.1657 IS DISTORTING EXCESSIVELY.
   ELEMENT BULDGE-SPECIMEN-1.1661 IS DISTORTING EXCESSIVELY.
   ELEMENT BULDGE-SPECIMEN-1.1673 IS DISTORTING EXCESSIVELY.
   ELEMENT BULDGE-SPECIMEN-1.1682 IS DISTORTING EXCESSIVELY.
   ELEMENT BULDGE-SPECIMEN-1.1682 IS DISTORTING EXCESSIVELY.
   ELEMENT BULDGE-SPECIMEN-1.1682 IS DISTORTING EXCESSIVELY.
   ELEMENT BULDGE-SPECIMEN-1.1682 IS DISTORTING EXCESSIVELY.
   ELEMENT BULDGE-SPECIMEN-1.1683 IS DISTORTING EXCESSIVELY.
   ELEMENT BULDGE-SPECIMEN-1.1687 IS DISTORTING EXCESSIVELY.
   ELEMENT BULDGE-SPECIMEN-1.1687 IS DISTORTING EXCESSIVELY.
   ELEMENT BULDGE-SPECIMEN-1.1687 IS DISTORTING EXCESSIVELY.
   ELEMENT BULDGE-SPECIMEN-1.1691 IS DISTORTING EXCESSIVELY.
   ELEMENT BULDGE-SPECIMEN-1.1708 IS DISTORTING EXCESSIVELY.
   ELEMENT BULDGE-SPECIMEN-1.1708 IS DISTORTING EXCESSIVELY.
   ELEMENT BULDGE-SPECIMEN-1.1709 IS DISTORTING EXCESSIVELY.
   ELEMENT BULDGE-SPECIMEN-1.1712 IS DISTORTING EXCESSIVELY.
   ELEMENT BULDGE-SPECIMEN-1.1713 IS DISTORTING EXCESSIVELY.
   ELEMENT BULDGE-SPECIMEN-1.1713 IS DISTORTING EXCESSIVELY.
   ELEMENT BULDGE-SPECIMEN-1.1729 IS DISTORTING EXCESSIVELY.
   ELEMENT BULDGE-SPECIMEN-1.1753 IS DISTORTING EXCESSIVELY.
   ELEMENT BULDGE-SPECIMEN-1.1753 IS DISTORTING EXCESSIVELY.
   ELEMENT BULDGE-SPECIMEN-1.1760 IS DISTORTING EXCESSIVELY.
   ELEMENT BULDGE-SPECIMEN-1.1771 IS DISTORTING EXCESSIVELY.
   ELEMENT BULDGE-SPECIMEN-1.1779 IS DISTORTING EXCESSIVELY.
   ELEMENT BULDGE-SPECIMEN-1.1794 IS DISTORTING EXCESSIVELY.
   ELEMENT BULDGE-SPECIMEN-1.1794 IS DISTORTING EXCESSIVELY.
   ELEMENT BULDGE-SPECIMEN-1.1794 IS DISTORTING EXCESSIVELY.
   ELEMENT BULDGE-SPECIMEN-1.1794 IS DISTORTING EXCESSIVELY.
   ELEMENT BULDGE-SPECIMEN-1.1800 IS DISTORTING EXCESSIVELY.
   ELEMENT BULDGE-SPECIMEN-1.1801 IS DISTORTING EXCESSIVELY.
   ELEMENT BULDGE-SPECIMEN-1.1801 IS DISTORTING EXCESSIVELY.
   ELEMENT BULDGE-SPECIMEN-1.1837 IS DISTORTING EXCESSIVELY.
   ELEMENT BULDGE-SPECIMEN-1.1837 IS DISTORTING EXCESSIVELY.
   ELEMENT BULDGE-SPECIMEN-1.1838 IS DISTORTING EXCESSIVELY.
   ELEMENT BULDGE-SPECIMEN-1.1838 IS DISTORTING EXCESSIVELY.
   ELEMENT BULDGE-SPECIMEN-1.1851 IS DISTORTING EXCESSIVELY.
   ELEMENT BULDGE-SPECIMEN-1.1243 IS DISTORTING EXCESSIVELY.
   ELEMENT BULDGE-SPECIMEN-1.1244 IS DISTORTING EXCESSIVELY.
   ELEMENT BULDGE-SPECIMEN-1.1245 IS DISTORTING EXCESSIVELY.
   ELEMENT BULDGE-SPECIMEN-1.1245 IS DISTORTING EXCESSIVELY.
   ELEMENT BULDGE-SPECIMEN-1.1246 IS DISTORTING EXCESSIVELY.
   ELEMENT BULDGE-SPECIMEN-1.1260 IS DISTORTING EXCESSIVELY.
   ELEMENT BULDGE-SPECIMEN-1.1264 IS DISTORTING EXCESSIVELY.
   ELEMENT BULDGE-SPECIMEN-1.1264 IS DISTORTING EXCESSIVELY.
   ELEMENT BULDGE-SPECIMEN-1.1273 IS DISTORTING EXCESSIVELY.
   ELEMENT BULDGE-SPECIMEN-1.1280 IS DISTORTING EXCESSIVELY.
   ELEMENT BULDGE-SPECIMEN-1.1280 IS DISTORTING EXCESSIVELY.
   ELEMENT BULDGE-SPECIMEN-1.1280 IS DISTORTING EXCESSIVELY.
   ELEMENT BULDGE-SPECIMEN-1.1281 IS DISTORTING EXCESSIVELY.
   ELEMENT BULDGE-SPECIMEN-1.1281 IS DISTORTING EXCESSIVELY.
   ELEMENT BULDGE-SPECIMEN-1.1281 IS DISTORTING EXCESSIVELY.
   ELEMENT BULDGE-SPECIMEN-1.1281 IS DISTORTING EXCESSIVELY.
   ELEMENT BULDGE-SPECIMEN-1.1282 IS DISTORTING EXCESSIVELY.
   ELEMENT BULDGE-SPECIMEN-1.1283 IS DISTORTING EXCESSIVELY.
   ELEMENT BULDGE-SPECIMEN-1.1285 IS DISTORTING EXCESSIVELY.
   ELEMENT BULDGE-SPECIMEN-1.1287 IS DISTORTING EXCESSIVELY.
   ELEMENT BULDGE-SPECIMEN-1.1287 IS DISTORTING EXCESSIVELY.
   ELEMENT BULDGE-SPECIMEN-1.1288 IS DISTORTING EXCESSIVELY.
   ELEMENT BULDGE-SPECIMEN-1.1288 IS DISTORTING EXCESSIVELY.
   ELEMENT BULDGE-SPECIMEN-1.1288 IS DISTORTING EXCESSIVELY.
   ELEMENT BULDGE-SPECIMEN-1.1288 IS DISTORTING EXCESSIVELY.
   ELEMENT BULDGE-SPECIMEN-1.1291 IS DISTORTING EXCESSIVELY.
   ELEMENT BULDGE-SPECIMEN-1.1293 IS DISTORTING EXCESSIVELY.
   ELEMENT BULDGE-SPECIMEN-1.1293 IS DISTORTING EXCESSIVELY.
   ELEMENT BULDGE-SPECIMEN-1.1293 IS DISTORTING EXCESSIVELY.
   ELEMENT BULDGE-SPECIMEN-1.1296 IS DISTORTING EXCESSIVELY.
   ELEMENT BULDGE-SPECIMEN-1.1296 IS DISTORTING EXCESSIVELY.
   ELEMENT BULDGE-SPECIMEN-1.1297 IS DISTORTING EXCESSIVELY.
   ELEMENT BULDGE-SPECIMEN-1.1301 IS DISTORTING EXCESSIVELY.
   ELEMENT BULDGE-SPECIMEN-1.1302 IS DISTORTING EXCESSIVELY.
   ELEMENT BULDGE-SPECIMEN-1.1311 IS DISTORTING EXCESSIVELY.
   ELEMENT BULDGE-SPECIMEN-1.1311 IS DISTORTING EXCESSIVELY.
   ELEMENT BULDGE-SPECIMEN-1.1312 IS DISTORTING EXCESSIVELY.
   ELEMENT BULDGE-SPECIMEN-1.1313 IS DISTORTING EXCESSIVELY.
   ELEMENT BULDGE-SPECIMEN-1.1314 IS DISTORTING EXCESSIVELY.
   ELEMENT BULDGE-SPECIMEN-1.1319 IS DISTORTING EXCESSIVELY.
   ELEMENT BULDGE-SPECIMEN-1.1319 IS DISTORTING EXCESSIVELY.
   ELEMENT BULDGE-SPECIMEN-1.1319 IS DISTORTING EXCESSIVELY.
   ELEMENT BULDGE-SPECIMEN-1.1320 IS DISTORTING EXCESSIVELY.
   ELEMENT BULDGE-SPECIMEN-1.1320 IS DISTORTING EXCESSIVELY.
   ELEMENT BULDGE-SPECIMEN-1.1322 IS DISTORTING EXCESSIVELY.
   ELEMENT BULDGE-SPECIMEN-1.1322 IS DISTORTING EXCESSIVELY.
   ELEMENT BULDGE-SPECIMEN-1.1322 IS DISTORTING EXCESSIVELY.
   ELEMENT BULDGE-SPECIMEN-1.1323 IS DISTORTING EXCESSIVELY.
   ELEMENT BULDGE-SPECIMEN-1.1323 IS DISTORTING EXCESSIVELY.
   ELEMENT BULDGE-SPECIMEN-1.1330 IS DISTORTING EXCESSIVELY.
   ELEMENT BULDGE-SPECIMEN-1.1334 IS DISTORTING EXCESSIVELY.
   ELEMENT BULDGE-SPECIMEN-1.1334 IS DISTORTING EXCESSIVELY.
   ELEMENT BULDGE-SPECIMEN-1.1335 IS DISTORTING EXCESSIVELY.
   ELEMENT BULDGE-SPECIMEN-1.1337 IS DISTORTING EXCESSIVELY.
   ELEMENT BULDGE-SPECIMEN-1.1339 IS DISTORTING EXCESSIVELY.
   ELEMENT BULDGE-SPECIMEN-1.1342 IS DISTORTING EXCESSIVELY.
   ELEMENT BULDGE-SPECIMEN-1.1344 IS DISTORTING EXCESSIVELY.
   ELEMENT BULDGE-SPECIMEN-1.1344 IS DISTORTING EXCESSIVELY.
   ELEMENT BULDGE-SPECIMEN-1.1344 IS DISTORTING EXCESSIVELY.
   ELEMENT BULDGE-SPECIMEN-1.1347 IS DISTORTING EXCESSIVELY.
   ELEMENT BULDGE-SPECIMEN-1.1348 IS DISTORTING EXCESSIVELY.
   ELEMENT BULDGE-SPECIMEN-1.1349 IS DISTORTING EXCESSIVELY.
   ELEMENT BULDGE-SPECIMEN-1.1350 IS DISTORTING EXCESSIVELY.
   ELEMENT BULDGE-SPECIMEN-1.1350 IS DISTORTING EXCESSIVELY.
   ELEMENT BULDGE-SPECIMEN-1.1352 IS DISTORTING EXCESSIVELY.
   ELEMENT BULDGE-SPECIMEN-1.1353 IS DISTORTING EXCESSIVELY.
   ELEMENT BULDGE-SPECIMEN-1.1360 IS DISTORTING EXCESSIVELY.
   ELEMENT BULDGE-SPECIMEN-1.1363 IS DISTORTING EXCESSIVELY.
   ELEMENT BULDGE-SPECIMEN-1.1363 IS DISTORTING EXCESSIVELY.
   ELEMENT BULDGE-SPECIMEN-1.1365 IS DISTORTING EXCESSIVELY.
   ELEMENT BULDGE-SPECIMEN-1.1367 IS DISTORTING EXCESSIVELY.
   ELEMENT BULDGE-SPECIMEN-1.1368 IS DISTORTING EXCESSIVELY.
   ELEMENT BULDGE-SPECIMEN-1.1369 IS DISTORTING EXCESSIVELY.
   ELEMENT BULDGE-SPECIMEN-1.1369 IS DISTORTING EXCESSIVELY.
   ELEMENT BULDGE-SPECIMEN-1.1369 IS DISTORTING EXCESSIVELY.
   ELEMENT BULDGE-SPECIMEN-1.1369 IS DISTORTING EXCESSIVELY.
   ELEMENT BULDGE-SPECIMEN-1.1370 IS DISTORTING EXCESSIVELY.
   ELEMENT BULDGE-SPECIMEN-1.1372 IS DISTORTING EXCESSIVELY.
   ELEMENT BULDGE-SPECIMEN-1.1372 IS DISTORTING EXCESSIVELY.
   ELEMENT BULDGE-SPECIMEN-1.1373 IS DISTORTING EXCESSIVELY.
   ELEMENT BULDGE-SPECIMEN-1.1374 IS DISTORTING EXCESSIVELY.
   ELEMENT BULDGE-SPECIMEN-1.1374 IS DISTORTING EXCESSIVELY.
   ELEMENT BULDGE-SPECIMEN-1.1374 IS DISTORTING EXCESSIVELY.
   ELEMENT BULDGE-SPECIMEN-1.1375 IS DISTORTING EXCESSIVELY.
   ELEMENT BULDGE-SPECIMEN-1.1375 IS DISTORTING EXCESSIVELY.
   ELEMENT BULDGE-SPECIMEN-1.1376 IS DISTORTING EXCESSIVELY.
   ELEMENT BULDGE-SPECIMEN-1.1376 IS DISTORTING EXCESSIVELY.
   ELEMENT BULDGE-SPECIMEN-1.1376 IS DISTORTING EXCESSIVELY.
   ELEMENT BULDGE-SPECIMEN-1.1378 IS DISTORTING EXCESSIVELY.
   ELEMENT BULDGE-SPECIMEN-1.1378 IS DISTORTING EXCESSIVELY.
   ELEMENT BULDGE-SPECIMEN-1.1378 IS DISTORTING EXCESSIVELY.
   ELEMENT BULDGE-SPECIMEN-1.1379 IS DISTORTING EXCESSIVELY.
   ELEMENT BULDGE-SPECIMEN-1.1379 IS DISTORTING EXCESSIVELY.
   ELEMENT BULDGE-SPECIMEN-1.1379 IS DISTORTING EXCESSIVELY.
   ELEMENT BULDGE-SPECIMEN-1.1389 IS DISTORTING EXCESSIVELY.
   ELEMENT BULDGE-SPECIMEN-1.1389 IS DISTORTING EXCESSIVELY.
   ELEMENT BULDGE-SPECIMEN-1.1389 IS DISTORTING EXCESSIVELY.
   ELEMENT BULDGE-SPECIMEN-1.1395 IS DISTORTING EXCESSIVELY.
   ELEMENT BULDGE-SPECIMEN-1.1395 IS DISTORTING EXCESSIVELY.
   ELEMENT BULDGE-SPECIMEN-1.1400 IS DISTORTING EXCESSIVELY.
   ELEMENT BULDGE-SPECIMEN-1.1401 IS DISTORTING EXCESSIVELY.
   ELEMENT BULDGE-SPECIMEN-1.1404 IS DISTORTING EXCESSIVELY.
   ELEMENT BULDGE-SPECIMEN-1.1405 IS DISTORTING EXCESSIVELY.
   ELEMENT BULDGE-SPECIMEN-1.1405 IS DISTORTING EXCESSIVELY.
   ELEMENT BULDGE-SPECIMEN-1.1408 IS DISTORTING EXCESSIVELY.
   ELEMENT BULDGE-SPECIMEN-1.1408 IS DISTORTING EXCESSIVELY.
   ELEMENT BULDGE-SPECIMEN-1.1408 IS DISTORTING EXCESSIVELY.
   ELEMENT BULDGE-SPECIMEN-1.1408 IS DISTORTING EXCESSIVELY.
   ELEMENT BULDGE-SPECIMEN-1.1410 IS DISTORTING EXCESSIVELY.
   ELEMENT BULDGE-SPECIMEN-1.1410 IS DISTORTING EXCESSIVELY.
   ELEMENT BULDGE-SPECIMEN-1.1413 IS DISTORTING EXCESSIVELY.
   ELEMENT BULDGE-SPECIMEN-1.1413 IS DISTORTING EXCESSIVELY.
   ELEMENT BULDGE-SPECIMEN-1.1413 IS DISTORTING EXCESSIVELY.
   ELEMENT BULDGE-SPECIMEN-1.1415 IS DISTORTING EXCESSIVELY.
   ELEMENT BULDGE-SPECIMEN-1.1415 IS DISTORTING EXCESSIVELY.
   ELEMENT BULDGE-SPECIMEN-1.1415 IS DISTORTING EXCESSIVELY.
   ELEMENT BULDGE-SPECIMEN-1.1418 IS DISTORTING EXCESSIVELY.
   ELEMENT BULDGE-SPECIMEN-1.1418 IS DISTORTING EXCESSIVELY.
   ELEMENT BULDGE-SPECIMEN-1.1420 IS DISTORTING EXCESSIVELY.
   ELEMENT BULDGE-SPECIMEN-1.1420 IS DISTORTING EXCESSIVELY.
   ELEMENT BULDGE-SPECIMEN-1.1420 IS DISTORTING EXCESSIVELY.
   ELEMENT BULDGE-SPECIMEN-1.1432 IS DISTORTING EXCESSIVELY.
   ELEMENT BULDGE-SPECIMEN-1.1432 IS DISTORTING EXCESSIVELY.
   ELEMENT BULDGE-SPECIMEN-1.1432 IS DISTORTING EXCESSIVELY.
   ELEMENT BULDGE-SPECIMEN-1.1433 IS DISTORTING EXCESSIVELY.
   ELEMENT BULDGE-SPECIMEN-1.1433 IS DISTORTING EXCESSIVELY.
   ELEMENT BULDGE-SPECIMEN-1.1440 IS DISTORTING EXCESSIVELY.
   ELEMENT BULDGE-SPECIMEN-1.1440 IS DISTORTING EXCESSIVELY.
   ELEMENT BULDGE-SPECIMEN-1.1440 IS DISTORTING EXCESSIVELY.

 ***WARNING: EXCESSIVE DISTORTION AT A TOTAL OF 780 INTEGRATION POINTS IN SOLID 
             (CONTINUUM) ELEMENTS

 ***WARNING: THE STRAINS ARE SO LARGE THAT THE PROGRAM WILL NOT ATTEMPT THE 
             HYPERELASTICITY CALCULATION AT 13 POINTS
 

 ***NOTE: ELEMENTS ARE DISTORTING EXCESSIVELY. CONVERGENCE IS JUDGED UNLIKELY.
 

 ***NOTE: MATERIAL CALCULATIONS FAILED TO CONVERGE OR WERE NOT ATTEMPTED AT ONE 
          OR MORE POINTS. CONVERGENCE IS JUDGED UNLIKELY.


  INCREMENT     1 STARTS. ATTEMPT NUMBER  2, TIME INCREMENT   1.25    
 
     INITIAL ELEMENT LOAD BALANCE
        COMPUTE NODE   1   PROCESS    NUMBER OF ELEMENTS
                              1            207
                              2            207
                              3            207
                              4            207
                              5            207
                              6            207
                              7            207
                              8            207
                              9            212
                             10            207

  NUMBER OF EQUATIONS =    10911     NUMBER OF FLOATING PT. OPERATIONS =  9.38E+08

  USING THE DIRECT SOLVER WITH  10 PROCESSORS

     CHECK POINT   START OF SOLVER    

     CHECK POINT  END OF SOLVER       

       ELAPSED USER TIME (SEC)      =  0.33000    
       ELAPSED SYSTEM TIME (SEC)    =  2.00000E-02
       ELAPSED TOTAL CPU TIME (SEC) =  0.35000    
       ELAPSED WALLCLOCK TIME (SEC) =          0

               CONVERGENCE CHECKS FOR EQUILIBRIUM ITERATION     1


 AVERAGE FORCE                      0.179       TIME AVG. FORCE       0.179    
 LARGEST RESIDUAL FORCE              5.30       AT NODE       1692   DOF  1
   INSTANCE: BULDGE-SPECIMEN-1                                                               
 LARGEST INCREMENT OF DISP.        -0.250       AT NODE          1   DOF  3
   INSTANCE: BULDGE-SPECIMEN-1                                                               
 LARGEST CORRECTION TO DISP.       -0.250       AT NODE          1   DOF  3
   INSTANCE: BULDGE-SPECIMEN-1                                                               
          FORCE     EQUILIBRIUM NOT ACHIEVED WITHIN TOLERANCE.

  NUMBER OF EQUATIONS =    10911     NUMBER OF FLOATING PT. OPERATIONS =  9.38E+08

  USING THE DIRECT SOLVER WITH  10 PROCESSORS

     CHECK POINT   START OF SOLVER    

     CHECK POINT  END OF SOLVER       

       ELAPSED USER TIME (SEC)      =  0.32000    
       ELAPSED SYSTEM TIME (SEC)    =  3.00000E-02
       ELAPSED TOTAL CPU TIME (SEC) =  0.35000    
       ELAPSED WALLCLOCK TIME (SEC) =          0

               CONVERGENCE CHECKS FOR EQUILIBRIUM ITERATION     2


 AVERAGE FORCE                      0.124       TIME AVG. FORCE       0.124    
 LARGEST RESIDUAL FORCE              1.81       AT NODE       1692   DOF  1
   INSTANCE: BULDGE-SPECIMEN-1                                                               
 LARGEST INCREMENT OF DISP.        -0.250       AT NODE          1   DOF  3
   INSTANCE: BULDGE-SPECIMEN-1                                                               
 LARGEST CORRECTION TO DISP.       -2.546E-02   AT NODE       3466   DOF  2
   INSTANCE: BULDGE-SPECIMEN-1                                                               
          FORCE     EQUILIBRIUM NOT ACHIEVED WITHIN TOLERANCE.

  NUMBER OF EQUATIONS =    10911     NUMBER OF FLOATING PT. OPERATIONS =  9.38E+08

  USING THE DIRECT SOLVER WITH  10 PROCESSORS

     CHECK POINT   START OF SOLVER    

     CHECK POINT  END OF SOLVER       

       ELAPSED USER TIME (SEC)      =  0.32000    
       ELAPSED SYSTEM TIME (SEC)    =  3.00000E-02
       ELAPSED TOTAL CPU TIME (SEC) =  0.35000    
       ELAPSED WALLCLOCK TIME (SEC) =          0

               CONVERGENCE CHECKS FOR EQUILIBRIUM ITERATION     3


 AVERAGE FORCE                      0.112       TIME AVG. FORCE       0.112    
 LARGEST RESIDUAL FORCE             0.420       AT NODE       1692   DOF  1
   INSTANCE: BULDGE-SPECIMEN-1                                                               
 LARGEST INCREMENT OF DISP.        -0.250       AT NODE          1   DOF  3
   INSTANCE: BULDGE-SPECIMEN-1                                                               
 LARGEST CORRECTION TO DISP.       -1.069E-02   AT NODE       1319   DOF  1
   INSTANCE: BULDGE-SPECIMEN-1                                                               
          FORCE     EQUILIBRIUM NOT ACHIEVED WITHIN TOLERANCE.

  NUMBER OF EQUATIONS =    10911     NUMBER OF FLOATING PT. OPERATIONS =  9.38E+08

  USING THE DIRECT SOLVER WITH  10 PROCESSORS

     CHECK POINT   START OF SOLVER    

     CHECK POINT  END OF SOLVER       

       ELAPSED USER TIME (SEC)      =  0.33000    
       ELAPSED SYSTEM TIME (SEC)    =  4.00000E-02
       ELAPSED TOTAL CPU TIME (SEC) =  0.37000    
       ELAPSED WALLCLOCK TIME (SEC) =          0

               CONVERGENCE CHECKS FOR EQUILIBRIUM ITERATION     4


 AVERAGE FORCE                      0.111       TIME AVG. FORCE       0.111    
 LARGEST RESIDUAL FORCE             3.632E-02   AT NODE       1692   DOF  1
   INSTANCE: BULDGE-SPECIMEN-1                                                               
 LARGEST INCREMENT OF DISP.        -0.250       AT NODE          1   DOF  3
   INSTANCE: BULDGE-SPECIMEN-1                                                               
 LARGEST CORRECTION TO DISP.       -1.983E-03   AT NODE       1319   DOF  1
   INSTANCE: BULDGE-SPECIMEN-1                                                               
          FORCE     EQUILIBRIUM NOT ACHIEVED WITHIN TOLERANCE.

  NUMBER OF EQUATIONS =    10911     NUMBER OF FLOATING PT. OPERATIONS =  9.38E+08

  USING THE DIRECT SOLVER WITH  10 PROCESSORS

     CHECK POINT   START OF SOLVER    

     CHECK POINT  END OF SOLVER       

       ELAPSED USER TIME (SEC)      =  0.33000    
       ELAPSED SYSTEM TIME (SEC)    =  3.00000E-02
       ELAPSED TOTAL CPU TIME (SEC) =  0.36000    
       ELAPSED WALLCLOCK TIME (SEC) =          0

               CONVERGENCE CHECKS FOR EQUILIBRIUM ITERATION     5


 AVERAGE FORCE                      0.111       TIME AVG. FORCE       0.111    
 LARGEST RESIDUAL FORCE             3.426E-04   AT NODE       1692   DOF  1
   INSTANCE: BULDGE-SPECIMEN-1                                                               
 LARGEST INCREMENT OF DISP.        -0.250       AT NODE          1   DOF  3
   INSTANCE: BULDGE-SPECIMEN-1                                                               
 LARGEST CORRECTION TO DISP.        1.654E-04   AT NODE       1692   DOF  1
   INSTANCE: BULDGE-SPECIMEN-1                                                               
          THE FORCE     EQUILIBRIUM EQUATIONS HAVE CONVERGED

 ITERATION SUMMARY FOR THE INCREMENT:   5 TOTAL ITERATIONS, OF WHICH
   0 ARE SEVERE DISCONTINUITY ITERATIONS AND  5 ARE EQUILIBRIUM ITERATIONS.

 TIME INCREMENT COMPLETED   1.25    ,  FRACTION OF STEP COMPLETED  0.250    
 STEP TIME COMPLETED        1.25    ,  TOTAL TIME COMPLETED         1.25    
  
     ASYNCHRONOUS OUTPUT DATABASE FRAME FLUSH STARTED
  


  INCREMENT     2 STARTS. ATTEMPT NUMBER  1, TIME INCREMENT   1.25    

  NUMBER OF EQUATIONS =    10911     NUMBER OF FLOATING PT. OPERATIONS =  9.38E+08

  USING THE DIRECT SOLVER WITH  10 PROCESSORS

     CHECK POINT   START OF SOLVER    

     CHECK POINT  END OF SOLVER       

       ELAPSED USER TIME (SEC)      =  0.32000    
       ELAPSED SYSTEM TIME (SEC)    =  3.00000E-02
       ELAPSED TOTAL CPU TIME (SEC) =  0.35000    
       ELAPSED WALLCLOCK TIME (SEC) =          0

               CONVERGENCE CHECKS FOR EQUILIBRIUM ITERATION     1


 AVERAGE FORCE                       1.21       TIME AVG. FORCE       0.660    
 LARGEST RESIDUAL FORCE              16.6       AT NODE        853   DOF  2
   INSTANCE: BULDGE-SPECIMEN-1                                                               
 LARGEST INCREMENT OF DISP.        -0.250       AT NODE          1   DOF  3
   INSTANCE: BULDGE-SPECIMEN-1                                                               
 LARGEST CORRECTION TO DISP.        4.454E-02   AT NODE        451   DOF  2
   INSTANCE: BULDGE-SPECIMEN-1                                                               
          FORCE     EQUILIBRIUM NOT ACHIEVED WITHIN TOLERANCE.

  NUMBER OF EQUATIONS =    10911     NUMBER OF FLOATING PT. OPERATIONS =  9.38E+08

  USING THE DIRECT SOLVER WITH  10 PROCESSORS

     CHECK POINT   START OF SOLVER    

     CHECK POINT  END OF SOLVER       

       ELAPSED USER TIME (SEC)      =  0.34000    
       ELAPSED SYSTEM TIME (SEC)    =  3.00000E-02
       ELAPSED TOTAL CPU TIME (SEC) =  0.37000    
       ELAPSED WALLCLOCK TIME (SEC) =          0

               CONVERGENCE CHECKS FOR EQUILIBRIUM ITERATION     2


 AVERAGE FORCE                       1.17       TIME AVG. FORCE       0.639    
 LARGEST RESIDUAL FORCE              3.47       AT NODE       1692   DOF  1
   INSTANCE: BULDGE-SPECIMEN-1                                                               
 LARGEST INCREMENT OF DISP.        -0.250       AT NODE          1   DOF  3
   INSTANCE: BULDGE-SPECIMEN-1                                                               
 LARGEST CORRECTION TO DISP.        1.496E-02   AT NODE         28   DOF  1
   INSTANCE: BULDGE-SPECIMEN-1                                                               
          FORCE     EQUILIBRIUM NOT ACHIEVED WITHIN TOLERANCE.

  NUMBER OF EQUATIONS =    10911     NUMBER OF FLOATING PT. OPERATIONS =  9.38E+08

  USING THE DIRECT SOLVER WITH  10 PROCESSORS

     CHECK POINT   START OF SOLVER    

     CHECK POINT  END OF SOLVER       

       ELAPSED USER TIME (SEC)      =  0.33000    
       ELAPSED SYSTEM TIME (SEC)    =  3.00000E-02
       ELAPSED TOTAL CPU TIME (SEC) =  0.36000    
       ELAPSED WALLCLOCK TIME (SEC) =          0

               CONVERGENCE CHECKS FOR EQUILIBRIUM ITERATION     3


 AVERAGE FORCE                       1.17       TIME AVG. FORCE       0.639    
 LARGEST RESIDUAL FORCE            -0.389       AT NODE       2314   DOF  1
   INSTANCE: BULDGE-SPECIMEN-1                                                               
 LARGEST INCREMENT OF DISP.        -0.250       AT NODE          1   DOF  3
   INSTANCE: BULDGE-SPECIMEN-1                                                               
 LARGEST CORRECTION TO DISP.        5.224E-03   AT NODE       1899   DOF  1
   INSTANCE: BULDGE-SPECIMEN-1                                                               
          FORCE     EQUILIBRIUM NOT ACHIEVED WITHIN TOLERANCE.

  NUMBER OF EQUATIONS =    10911     NUMBER OF FLOATING PT. OPERATIONS =  9.38E+08

  USING THE DIRECT SOLVER WITH  10 PROCESSORS

     CHECK POINT   START OF SOLVER    

     CHECK POINT  END OF SOLVER       

       ELAPSED USER TIME (SEC)      =  0.33000    
       ELAPSED SYSTEM TIME (SEC)    =  2.00000E-02
       ELAPSED TOTAL CPU TIME (SEC) =  0.35000    
       ELAPSED WALLCLOCK TIME (SEC) =          0

               CONVERGENCE CHECKS FOR EQUILIBRIUM ITERATION     4


 AVERAGE FORCE                       1.17       TIME AVG. FORCE       0.639    
 LARGEST RESIDUAL FORCE             1.205E-02   AT NODE       1085   DOF  3
   INSTANCE: BULDGE-SPECIMEN-1                                                               
 LARGEST INCREMENT OF DISP.        -0.250       AT NODE          1   DOF  3
   INSTANCE: BULDGE-SPECIMEN-1                                                               
 LARGEST CORRECTION TO DISP.        1.215E-03   AT NODE       1085   DOF  3
   INSTANCE: BULDGE-SPECIMEN-1                                                               
          FORCE     EQUILIBRIUM NOT ACHIEVED WITHIN TOLERANCE.

  NUMBER OF EQUATIONS =    10911     NUMBER OF FLOATING PT. OPERATIONS =  9.38E+08

  USING THE DIRECT SOLVER WITH  10 PROCESSORS

     CHECK POINT   START OF SOLVER    

     CHECK POINT  END OF SOLVER       

       ELAPSED USER TIME (SEC)      =  0.33000    
       ELAPSED SYSTEM TIME (SEC)    =  2.00000E-02
       ELAPSED TOTAL CPU TIME (SEC) =  0.35000    
       ELAPSED WALLCLOCK TIME (SEC) =          0

               CONVERGENCE CHECKS FOR EQUILIBRIUM ITERATION     5


 AVERAGE FORCE                       1.17       TIME AVG. FORCE       0.639    
 LARGEST RESIDUAL FORCE             2.326E-05   AT NODE       1085   DOF  3
   INSTANCE: BULDGE-SPECIMEN-1                                                               
 LARGEST INCREMENT OF DISP.        -0.250       AT NODE          1   DOF  3
   INSTANCE: BULDGE-SPECIMEN-1                                                               
 LARGEST CORRECTION TO DISP.        5.565E-05   AT NODE       1085   DOF  3
   INSTANCE: BULDGE-SPECIMEN-1                                                               
          THE FORCE     EQUILIBRIUM EQUATIONS HAVE CONVERGED

 ITERATION SUMMARY FOR THE INCREMENT:   5 TOTAL ITERATIONS, OF WHICH
   0 ARE SEVERE DISCONTINUITY ITERATIONS AND  5 ARE EQUILIBRIUM ITERATIONS.

 TIME INCREMENT COMPLETED   1.25    ,  FRACTION OF STEP COMPLETED  0.500    
 STEP TIME COMPLETED        2.50    ,  TOTAL TIME COMPLETED         2.50    
  
     ASYNCHRONOUS OUTPUT DATABASE FRAME FLUSH STARTED
  


  INCREMENT     3 STARTS. ATTEMPT NUMBER  1, TIME INCREMENT   1.25    

  NUMBER OF EQUATIONS =    10911     NUMBER OF FLOATING PT. OPERATIONS =  9.38E+08

  USING THE DIRECT SOLVER WITH  10 PROCESSORS

     CHECK POINT   START OF SOLVER    

     CHECK POINT  END OF SOLVER       

       ELAPSED USER TIME (SEC)      =  0.34000    
       ELAPSED SYSTEM TIME (SEC)    =  2.00000E-02
       ELAPSED TOTAL CPU TIME (SEC) =  0.36000    
       ELAPSED WALLCLOCK TIME (SEC) =          0

               CONVERGENCE CHECKS FOR EQUILIBRIUM ITERATION     1


 AVERAGE FORCE                       39.5       TIME AVG. FORCE        13.6    
 LARGEST RESIDUAL FORCE             -47.4       AT NODE        574   DOF  1
   INSTANCE: BULDGE-SPECIMEN-1                                                               
 LARGEST INCREMENT OF DISP.        -0.250       AT NODE          1   DOF  3
   INSTANCE: BULDGE-SPECIMEN-1                                                               
 LARGEST CORRECTION TO DISP.        3.458E-02   AT NODE        103   DOF  3
   INSTANCE: BULDGE-SPECIMEN-1                                                               
          FORCE     EQUILIBRIUM NOT ACHIEVED WITHIN TOLERANCE.

  NUMBER OF EQUATIONS =    10911     NUMBER OF FLOATING PT. OPERATIONS =  9.38E+08

  USING THE DIRECT SOLVER WITH  10 PROCESSORS

     CHECK POINT   START OF SOLVER    

     CHECK POINT  END OF SOLVER       

       ELAPSED USER TIME (SEC)      =  0.32000    
       ELAPSED SYSTEM TIME (SEC)    =  2.00000E-02
       ELAPSED TOTAL CPU TIME (SEC) =  0.34000    
       ELAPSED WALLCLOCK TIME (SEC) =          0

               CONVERGENCE CHECKS FOR EQUILIBRIUM ITERATION     2


 AVERAGE FORCE                       39.5       TIME AVG. FORCE        13.6    
 LARGEST RESIDUAL FORCE             -1.25       AT NODE       3390   DOF  1
   INSTANCE: BULDGE-SPECIMEN-1                                                               
 LARGEST INCREMENT OF DISP.        -0.250       AT NODE          1   DOF  3
   INSTANCE: BULDGE-SPECIMEN-1                                                               
 LARGEST CORRECTION TO DISP.       -9.816E-03   AT NODE       2739   DOF  3
   INSTANCE: BULDGE-SPECIMEN-1                                                               
          FORCE     EQUILIBRIUM NOT ACHIEVED WITHIN TOLERANCE.

  NUMBER OF EQUATIONS =    10911     NUMBER OF FLOATING PT. OPERATIONS =  9.38E+08

  USING THE DIRECT SOLVER WITH  10 PROCESSORS

     CHECK POINT   START OF SOLVER    

     CHECK POINT  END OF SOLVER       

       ELAPSED USER TIME (SEC)      =  0.33000    
       ELAPSED SYSTEM TIME (SEC)    =  2.00000E-02
       ELAPSED TOTAL CPU TIME (SEC) =  0.35000    
       ELAPSED WALLCLOCK TIME (SEC) =          0

               CONVERGENCE CHECKS FOR EQUILIBRIUM ITERATION     3


 AVERAGE FORCE                       39.5       TIME AVG. FORCE        13.6    
 LARGEST RESIDUAL FORCE            -2.820E-02   AT NODE       3116   DOF  3
   INSTANCE: BULDGE-SPECIMEN-1                                                               
 LARGEST INCREMENT OF DISP.        -0.250       AT NODE          1   DOF  3
   INSTANCE: BULDGE-SPECIMEN-1                                                               
 LARGEST CORRECTION TO DISP.       -9.690E-04   AT NODE       3116   DOF  3
   INSTANCE: BULDGE-SPECIMEN-1                                                               
          THE FORCE     EQUILIBRIUM EQUATIONS HAVE CONVERGED

 ITERATION SUMMARY FOR THE INCREMENT:   3 TOTAL ITERATIONS, OF WHICH
   0 ARE SEVERE DISCONTINUITY ITERATIONS AND  3 ARE EQUILIBRIUM ITERATIONS.

 TIME INCREMENT COMPLETED   1.25    ,  FRACTION OF STEP COMPLETED  0.750    
 STEP TIME COMPLETED        3.75    ,  TOTAL TIME COMPLETED         3.75    
  
     ASYNCHRONOUS OUTPUT DATABASE FRAME FLUSH STARTED
  


  INCREMENT     4 STARTS. ATTEMPT NUMBER  1, TIME INCREMENT   1.25    

  NUMBER OF EQUATIONS =    10911     NUMBER OF FLOATING PT. OPERATIONS =  9.38E+08

  USING THE DIRECT SOLVER WITH  10 PROCESSORS

     CHECK POINT   START OF SOLVER    

     CHECK POINT  END OF SOLVER       

       ELAPSED USER TIME (SEC)      =  0.34000    
       ELAPSED SYSTEM TIME (SEC)    =  3.00000E-02
       ELAPSED TOTAL CPU TIME (SEC) =  0.37000    
       ELAPSED WALLCLOCK TIME (SEC) =          0

               CONVERGENCE CHECKS FOR EQUILIBRIUM ITERATION     1


 AVERAGE FORCE                      2.276E+03   TIME AVG. FORCE        579.    
 LARGEST RESIDUAL FORCE              265.       AT NODE       3242   DOF  3
   INSTANCE: BULDGE-SPECIMEN-1                                                               
 LARGEST INCREMENT OF DISP.        -0.250       AT NODE          1   DOF  3
   INSTANCE: BULDGE-SPECIMEN-1                                                               
 LARGEST CORRECTION TO DISP.        5.385E-02   AT NODE        983   DOF  3
   INSTANCE: BULDGE-SPECIMEN-1                                                               
          FORCE     EQUILIBRIUM NOT ACHIEVED WITHIN TOLERANCE.

  NUMBER OF EQUATIONS =    10911     NUMBER OF FLOATING PT. OPERATIONS =  9.38E+08

  USING THE DIRECT SOLVER WITH  10 PROCESSORS

     CHECK POINT   START OF SOLVER    

     CHECK POINT  END OF SOLVER       

       ELAPSED USER TIME (SEC)      =  0.33000    
       ELAPSED SYSTEM TIME (SEC)    =  1.00000E-02
       ELAPSED TOTAL CPU TIME (SEC) =  0.34000    
       ELAPSED WALLCLOCK TIME (SEC) =          0

               CONVERGENCE CHECKS FOR EQUILIBRIUM ITERATION     2


 AVERAGE FORCE                      2.272E+03   TIME AVG. FORCE        578.    
 LARGEST RESIDUAL FORCE              55.2       AT NODE       1268   DOF  3
   INSTANCE: BULDGE-SPECIMEN-1                                                               
 LARGEST INCREMENT OF DISP.        -0.250       AT NODE          1   DOF  3
   INSTANCE: BULDGE-SPECIMEN-1                                                               
 LARGEST CORRECTION TO DISP.        1.142E-02   AT NODE       1267   DOF  1
   INSTANCE: BULDGE-SPECIMEN-1                                                               
          FORCE     EQUILIBRIUM NOT ACHIEVED WITHIN TOLERANCE.

  NUMBER OF EQUATIONS =    10911     NUMBER OF FLOATING PT. OPERATIONS =  9.38E+08

  USING THE DIRECT SOLVER WITH  10 PROCESSORS

     CHECK POINT   START OF SOLVER    

     CHECK POINT  END OF SOLVER       

       ELAPSED USER TIME (SEC)      =  0.33000    
       ELAPSED SYSTEM TIME (SEC)    =  3.00000E-02
       ELAPSED TOTAL CPU TIME (SEC) =  0.36000    
       ELAPSED WALLCLOCK TIME (SEC) =          0

               CONVERGENCE CHECKS FOR EQUILIBRIUM ITERATION     3


 AVERAGE FORCE                      2.272E+03   TIME AVG. FORCE        578.    
 LARGEST RESIDUAL FORCE              16.1       AT NODE       1268   DOF  3
   INSTANCE: BULDGE-SPECIMEN-1                                                               
 LARGEST INCREMENT OF DISP.        -0.250       AT NODE          1   DOF  3
   INSTANCE: BULDGE-SPECIMEN-1                                                               
 LARGEST CORRECTION TO DISP.        6.172E-03   AT NODE       2177   DOF  3
   INSTANCE: BULDGE-SPECIMEN-1                                                               
          FORCE     EQUILIBRIUM NOT ACHIEVED WITHIN TOLERANCE.

  NUMBER OF EQUATIONS =    10911     NUMBER OF FLOATING PT. OPERATIONS =  9.38E+08

  USING THE DIRECT SOLVER WITH  10 PROCESSORS

     CHECK POINT   START OF SOLVER    

     CHECK POINT  END OF SOLVER       

       ELAPSED USER TIME (SEC)      =  0.34000    
       ELAPSED SYSTEM TIME (SEC)    =  1.00000E-02
       ELAPSED TOTAL CPU TIME (SEC) =  0.35000    
       ELAPSED WALLCLOCK TIME (SEC) =          0

               CONVERGENCE CHECKS FOR EQUILIBRIUM ITERATION     4


 AVERAGE FORCE                      2.271E+03   TIME AVG. FORCE        578.    
 LARGEST RESIDUAL FORCE              3.10       AT NODE       1268   DOF  3
   INSTANCE: BULDGE-SPECIMEN-1                                                               
 LARGEST INCREMENT OF DISP.        -0.250       AT NODE          1   DOF  3
   INSTANCE: BULDGE-SPECIMEN-1                                                               
 LARGEST CORRECTION TO DISP.        4.374E-03   AT NODE       1268   DOF  3
   INSTANCE: BULDGE-SPECIMEN-1                                                               
          FORCE     EQUILIBRIUM NOT ACHIEVED WITHIN TOLERANCE.

  NUMBER OF EQUATIONS =    10911     NUMBER OF FLOATING PT. OPERATIONS =  9.38E+08

  USING THE DIRECT SOLVER WITH  10 PROCESSORS

     CHECK POINT   START OF SOLVER    

     CHECK POINT  END OF SOLVER       

       ELAPSED USER TIME (SEC)      =  0.33000    
       ELAPSED SYSTEM TIME (SEC)    =  3.00000E-02
       ELAPSED TOTAL CPU TIME (SEC) =  0.36000    
       ELAPSED WALLCLOCK TIME (SEC) =          0

               CONVERGENCE CHECKS FOR EQUILIBRIUM ITERATION     5


 AVERAGE FORCE                      2.271E+03   TIME AVG. FORCE        578.    
 LARGEST RESIDUAL FORCE             0.212       AT NODE       1268   DOF  3
   INSTANCE: BULDGE-SPECIMEN-1                                                               
 LARGEST INCREMENT OF DISP.        -0.250       AT NODE          1   DOF  3
   INSTANCE: BULDGE-SPECIMEN-1                                                               
 LARGEST CORRECTION TO DISP.        1.807E-03   AT NODE       2778   DOF  1
   INSTANCE: BULDGE-SPECIMEN-1                                                               
          THE FORCE     EQUILIBRIUM EQUATIONS HAVE CONVERGED

 ITERATION SUMMARY FOR THE INCREMENT:   5 TOTAL ITERATIONS, OF WHICH
   0 ARE SEVERE DISCONTINUITY ITERATIONS AND  5 ARE EQUILIBRIUM ITERATIONS.

 TIME INCREMENT COMPLETED   1.25    ,  FRACTION OF STEP COMPLETED   1.00    
 STEP TIME COMPLETED        5.00    ,  TOTAL TIME COMPLETED         5.00    
1

   Abaqus 6.14-1                                  Date 02-Sep-2021   Time 11:40:49
   For use at UNIVERSITY OF CAPE TOWN under license from Dassault Systemes or its subsidiary.

                                                                                 
                                                                                 
 STEP    2     INCREMENT     1     STEP TIME    0.00    


                        S T E P       2     S T A T I C   A N A L Y S I S


                                                                                          

     AUTOMATIC TIME CONTROL WITH -
          A SUGGESTED INITIAL TIME INCREMENT OF                 5.00    
          AND A TOTAL TIME PERIOD OF                            5.00    
          THE MINIMUM TIME INCREMENT ALLOWED IS                5.000E-05
          THE MAXIMUM TIME INCREMENT ALLOWED IS                 5.00    

     LINEAR EQUATION SOLVER TYPE         DIRECT SPARSE

 CONVERGENCE TOLERANCE PARAMETERS FOR FORCE    
     CRITERION FOR RESIDUAL FORCE     FOR A NONLINEAR PROBLEM          5.000E-03
     CRITERION FOR DISP.    CORRECTION IN A NONLINEAR PROBLEM          1.000E-02
     INIT. VALUE OF TIME AVG. FORCE     IS TIME AVG. FORCE     IN PREVIOUS STEP
     AVERAGE FORCE     IS TIME AVERAGE FORCE    
     ALTERNATE CRIT. FOR RESIDUAL FORCE     FOR A NONLINEAR PROBLEM    2.000E-02
     CRITERION FOR ZERO FORCE     RELATIVE TO TIME AVRG. FORCE         1.000E-05
     CRITERION FOR RESIDUAL FORCE     WHEN THERE IS ZERO FLUX          1.000E-05
     CRITERION FOR DISP.    CORRECTION WHEN THERE IS ZERO FLUX         1.000E-03
     CRITERION FOR RESIDUAL FORCE     FOR A LINEAR INCREMENT           1.000E-08
     FIELD CONVERSION RATIO                                             1.00    
[...]
     FRACTION OF STABILITY LIMIT FOR NEW TIME INCREMENT               0.9500    
     TIME INCREMENT INCREASE FACTOR BEFORE A TIME POINT                1.000    
     GLOBAL STABILIZATION CONTROL IS NOT USED

          PRINT OF INCREMENT NUMBER, TIME, ETC., EVERY    1  INCREMENTS

     THE MAXIMUM NUMBER OF INCREMENTS IN THIS STEP IS                     100

          LARGE DISPLACEMENT THEORY WILL BE USED

     LINEAR EXTRAPOLATION WILL BE USED

     CHARACTERISTIC ELEMENT LENGTH      2.87    

     DETAILS REGARDING ACTUAL SOLUTION WAVEFRONT REQUESTED

     DETAILED OUTPUT OF DIAGNOSTICS TO DATABASE REQUESTED

     PRINT OF INCREMENT NUMBER, TIME, ETC., TO THE MESSAGE FILE EVERY     1  INCREMENTS

     ELEMENT OPERATIONS WILL BE CARRIED OUT IN PARALLEL USING  10 PROCESSORS
          THE INITIAL TIME INCREMENT WAS REDUCED TO    1.00     TO MEET THE NEXT OUTPUT TIME POINT

     COLLECTING STEP CONSTRAINT INFORMATION FOR OVERCONSTRAINT CHECKS
  
     ASYNCHRONOUS OUTPUT DATABASE FRAME FLUSH STARTED
  


  INCREMENT     1 STARTS. ATTEMPT NUMBER  1, TIME INCREMENT   1.00    
 
     INITIAL ELEMENT LOAD BALANCE
        COMPUTE NODE   1   PROCESS    NUMBER OF ELEMENTS
                              1            212
                              2            207
                              3            207
                              4            207
                              5            207
                              6            207
                              7            207
                              8            207
                              9            207
                             10            207

  NUMBER OF EQUATIONS =    10911     NUMBER OF FLOATING PT. OPERATIONS =  9.38E+08

  USING THE DIRECT SOLVER WITH  10 PROCESSORS

     CHECK POINT   START OF SOLVER    

     CHECK POINT  END OF SOLVER       

       ELAPSED USER TIME (SEC)      =  0.35000    
       ELAPSED SYSTEM TIME (SEC)    =  2.00000E-02
       ELAPSED TOTAL CPU TIME (SEC) =  0.37000    
       ELAPSED WALLCLOCK TIME (SEC) =          0

               CONVERGENCE CHECKS FOR EQUILIBRIUM ITERATION     1


 AVERAGE FORCE                      2.617E+03   TIME AVG. FORCE       2.617E+03
 LARGEST RESIDUAL FORCE              13.9       AT NODE       1620   DOF  3
   INSTANCE: BULDGE-SPECIMEN-1                                                               
 LARGEST INCREMENT OF DISP.          1.08       AT NODE       1055   DOF  3
   INSTANCE: BULDGE-SPECIMEN-1                                                               
 LARGEST CORRECTION TO DISP.         1.08       AT NODE       1055   DOF  3
   INSTANCE: BULDGE-SPECIMEN-1                                                               
          FORCE     EQUILIBRIUM NOT ACHIEVED WITHIN TOLERANCE.

  NUMBER OF EQUATIONS =    10911     NUMBER OF FLOATING PT. OPERATIONS =  9.38E+08

  USING THE DIRECT SOLVER WITH  10 PROCESSORS

     CHECK POINT   START OF SOLVER    

     CHECK POINT  END OF SOLVER       

       ELAPSED USER TIME (SEC)      =  0.32000    
       ELAPSED SYSTEM TIME (SEC)    =  2.00000E-02
       ELAPSED TOTAL CPU TIME (SEC) =  0.34000    
       ELAPSED WALLCLOCK TIME (SEC) =          0

               CONVERGENCE CHECKS FOR EQUILIBRIUM ITERATION     2


 AVERAGE FORCE                      2.733E+03   TIME AVG. FORCE       2.733E+03
 LARGEST RESIDUAL FORCE              4.93       AT NODE       1620   DOF  3
   INSTANCE: BULDGE-SPECIMEN-1                                                               
 LARGEST INCREMENT OF DISP.          1.02       AT NODE          7   DOF  3
   INSTANCE: BULDGE-SPECIMEN-1                                                               
 LARGEST CORRECTION TO DISP.       -8.642E-02   AT NODE       3365   DOF  3
   INSTANCE: BULDGE-SPECIMEN-1                                                               
          DISP.    CORRECTION TOO LARGE COMPARED TO DISP.    INCREMENT

  NUMBER OF EQUATIONS =    10911     NUMBER OF FLOATING PT. OPERATIONS =  9.38E+08

  USING THE DIRECT SOLVER WITH  10 PROCESSORS

     CHECK POINT   START OF SOLVER    

     CHECK POINT  END OF SOLVER       

       ELAPSED USER TIME (SEC)      =  0.35000    
       ELAPSED SYSTEM TIME (SEC)    =  1.00000E-02
       ELAPSED TOTAL CPU TIME (SEC) =  0.36000    
       ELAPSED WALLCLOCK TIME (SEC) =          0

               CONVERGENCE CHECKS FOR EQUILIBRIUM ITERATION     3


 AVERAGE FORCE                      2.806E+03   TIME AVG. FORCE       2.806E+03
 LARGEST RESIDUAL FORCE             -1.69       AT NODE       2094   DOF  1
   INSTANCE: BULDGE-SPECIMEN-1                                                               
 LARGEST INCREMENT OF DISP.         0.949       AT NODE          7   DOF  3
   INSTANCE: BULDGE-SPECIMEN-1                                                               
 LARGEST CORRECTION TO DISP.       -7.436E-02   AT NODE       1055   DOF  3
   INSTANCE: BULDGE-SPECIMEN-1                                                               
          DISP.    CORRECTION TOO LARGE COMPARED TO DISP.    INCREMENT

  NUMBER OF EQUATIONS =    10911     NUMBER OF FLOATING PT. OPERATIONS =  9.38E+08

  USING THE DIRECT SOLVER WITH  10 PROCESSORS

     CHECK POINT   START OF SOLVER    

     CHECK POINT  END OF SOLVER       

       ELAPSED USER TIME (SEC)      =  0.33000    
       ELAPSED SYSTEM TIME (SEC)    =  2.00000E-02
       ELAPSED TOTAL CPU TIME (SEC) =  0.35000    
       ELAPSED WALLCLOCK TIME (SEC) =          0

               CONVERGENCE CHECKS FOR EQUILIBRIUM ITERATION     4


 AVERAGE FORCE                      2.833E+03   TIME AVG. FORCE       2.833E+03
 LARGEST RESIDUAL FORCE            -0.462       AT NODE       2094   DOF  1
   INSTANCE: BULDGE-SPECIMEN-1                                                               
 LARGEST INCREMENT OF DISP.         0.926       AT NODE          7   DOF  3
   INSTANCE: BULDGE-SPECIMEN-1                                                               
 LARGEST CORRECTION TO DISP.       -2.346E-02   AT NODE       3345   DOF  3
   INSTANCE: BULDGE-SPECIMEN-1                                                               
 ESTIMATE OF DISP.    CORRECTION   -6.417E-03
 FORCE     EQUILIB. ACCEPTED BASED ON SMALL RESIDUAL AND ESTIMATED CORRECTION
          TIME INCREMENT MAY NOW INCREASE TO     5.00    
          TIME INCREMENT REDUCED TO    1.00     TO MEET NEXT OUTPUT TIME POINT

 ITERATION SUMMARY FOR THE INCREMENT:   4 TOTAL ITERATIONS, OF WHICH
   0 ARE SEVERE DISCONTINUITY ITERATIONS AND  4 ARE EQUILIBRIUM ITERATIONS.

 TIME INCREMENT COMPLETED   1.00    ,  FRACTION OF STEP COMPLETED  0.200    
 STEP TIME COMPLETED        1.00    ,  TOTAL TIME COMPLETED         6.00    
  
     ASYNCHRONOUS OUTPUT DATABASE FRAME FLUSH STARTED
  


  INCREMENT     2 STARTS. ATTEMPT NUMBER  1, TIME INCREMENT   1.00    

  NUMBER OF EQUATIONS =    10911     NUMBER OF FLOATING PT. OPERATIONS =  9.38E+08

  USING THE DIRECT SOLVER WITH  10 PROCESSORS

     CHECK POINT   START OF SOLVER    

     CHECK POINT  END OF SOLVER       

       ELAPSED USER TIME (SEC)      =  0.31000    
       ELAPSED SYSTEM TIME (SEC)    =  2.00000E-02
       ELAPSED TOTAL CPU TIME (SEC) =  0.33000    
       ELAPSED WALLCLOCK TIME (SEC) =          0

               CONVERGENCE CHECKS FOR EQUILIBRIUM ITERATION     1


 AVERAGE FORCE                      2.779E+03   TIME AVG. FORCE       2.806E+03
 LARGEST RESIDUAL FORCE              19.4       AT NODE        668   DOF  3
   INSTANCE: BULDGE-SPECIMEN-1                                                               
 LARGEST INCREMENT OF DISP.         0.663       AT NODE          7   DOF  3
   INSTANCE: BULDGE-SPECIMEN-1                                                               
 LARGEST CORRECTION TO DISP.       -0.270       AT NODE       1055   DOF  3
   INSTANCE: BULDGE-SPECIMEN-1                                                               
          FORCE     EQUILIBRIUM NOT ACHIEVED WITHIN TOLERANCE.

  NUMBER OF EQUATIONS =    10911     NUMBER OF FLOATING PT. OPERATIONS =  9.38E+08

  USING THE DIRECT SOLVER WITH  10 PROCESSORS

     CHECK POINT   START OF SOLVER    

     CHECK POINT  END OF SOLVER       

       ELAPSED USER TIME (SEC)      =  0.30000    
       ELAPSED SYSTEM TIME (SEC)    =  5.00000E-02
       ELAPSED TOTAL CPU TIME (SEC) =  0.35000    
       ELAPSED WALLCLOCK TIME (SEC) =          1

               CONVERGENCE CHECKS FOR EQUILIBRIUM ITERATION     2


 AVERAGE FORCE                      2.933E+03   TIME AVG. FORCE       2.883E+03
 LARGEST RESIDUAL FORCE              6.66       AT NODE        668   DOF  3
   INSTANCE: BULDGE-SPECIMEN-1                                                               
 LARGEST INCREMENT OF DISP.         0.518       AT NODE          7   DOF  3
   INSTANCE: BULDGE-SPECIMEN-1                                                               
 LARGEST CORRECTION TO DISP.       -0.148       AT NODE         55   DOF  3
   INSTANCE: BULDGE-SPECIMEN-1                                                               
          DISP.    CORRECTION TOO LARGE COMPARED TO DISP.    INCREMENT

  NUMBER OF EQUATIONS =    10911     NUMBER OF FLOATING PT. OPERATIONS =  9.38E+08

  USING THE DIRECT SOLVER WITH  10 PROCESSORS

     CHECK POINT   START OF SOLVER    

     CHECK POINT  END OF SOLVER       

       ELAPSED USER TIME (SEC)      =  0.32000    
       ELAPSED SYSTEM TIME (SEC)    =  2.00000E-02
       ELAPSED TOTAL CPU TIME (SEC) =  0.34000    
       ELAPSED WALLCLOCK TIME (SEC) =          0

               CONVERGENCE CHECKS FOR EQUILIBRIUM ITERATION     3


 AVERAGE FORCE                      3.008E+03   TIME AVG. FORCE       2.921E+03
 LARGEST RESIDUAL FORCE             -2.18       AT NODE       2094   DOF  1
   INSTANCE: BULDGE-SPECIMEN-1                                                               
 LARGEST INCREMENT OF DISP.         0.460       AT NODE          7   DOF  3
   INSTANCE: BULDGE-SPECIMEN-1                                                               
 LARGEST CORRECTION TO DISP.       -5.772E-02   AT NODE       1055   DOF  3
   INSTANCE: BULDGE-SPECIMEN-1                                                               
          DISP.    CORRECTION TOO LARGE COMPARED TO DISP.    INCREMENT

  NUMBER OF EQUATIONS =    10911     NUMBER OF FLOATING PT. OPERATIONS =  9.38E+08

  USING THE DIRECT SOLVER WITH  10 PROCESSORS

     CHECK POINT   START OF SOLVER    

     CHECK POINT  END OF SOLVER       

       ELAPSED USER TIME (SEC)      =  0.35000    
       ELAPSED SYSTEM TIME (SEC)    =  1.00000E-02
       ELAPSED TOTAL CPU TIME (SEC) =  0.36000    
       ELAPSED WALLCLOCK TIME (SEC) =          0

               CONVERGENCE CHECKS FOR EQUILIBRIUM ITERATION     4


 AVERAGE FORCE                      3.029E+03   TIME AVG. FORCE       2.931E+03
 LARGEST RESIDUAL FORCE            -0.525       AT NODE       2094   DOF  1
   INSTANCE: BULDGE-SPECIMEN-1                                                               
 LARGEST INCREMENT OF DISP.         0.447       AT NODE          7   DOF  3
   INSTANCE: BULDGE-SPECIMEN-1                                                               
 LARGEST CORRECTION TO DISP.       -1.342E-02   AT NODE       3345   DOF  3
   INSTANCE: BULDGE-SPECIMEN-1                                                               
 ESTIMATE OF DISP.    CORRECTION   -3.232E-03
 FORCE     EQUILIB. ACCEPTED BASED ON SMALL RESIDUAL AND ESTIMATED CORRECTION
          TIME INCREMENT MAY NOW INCREASE TO     5.00    
          TIME INCREMENT REDUCED TO    1.00     TO MEET NEXT OUTPUT TIME POINT

 ITERATION SUMMARY FOR THE INCREMENT:   4 TOTAL ITERATIONS, OF WHICH
   0 ARE SEVERE DISCONTINUITY ITERATIONS AND  4 ARE EQUILIBRIUM ITERATIONS.

 TIME INCREMENT COMPLETED   1.00    ,  FRACTION OF STEP COMPLETED  0.400    
 STEP TIME COMPLETED        2.00    ,  TOTAL TIME COMPLETED         7.00    
  
     ASYNCHRONOUS OUTPUT DATABASE FRAME FLUSH STARTED
  


  INCREMENT     3 STARTS. ATTEMPT NUMBER  1, TIME INCREMENT   1.00    

  NUMBER OF EQUATIONS =    10911     NUMBER OF FLOATING PT. OPERATIONS =  9.38E+08

  USING THE DIRECT SOLVER WITH  10 PROCESSORS

     CHECK POINT   START OF SOLVER    

     CHECK POINT  END OF SOLVER       

       ELAPSED USER TIME (SEC)      =  0.30000    
       ELAPSED SYSTEM TIME (SEC)    =  3.00000E-02
       ELAPSED TOTAL CPU TIME (SEC) =  0.33000    
       ELAPSED WALLCLOCK TIME (SEC) =          0

               CONVERGENCE CHECKS FOR EQUILIBRIUM ITERATION     1


 AVERAGE FORCE                      2.802E+03   TIME AVG. FORCE       2.888E+03
 LARGEST RESIDUAL FORCE              1.85       AT NODE       1575   DOF  3
   INSTANCE: BULDGE-SPECIMEN-1                                                               
 LARGEST INCREMENT OF DISP.         0.299       AT NODE          7   DOF  3
   INSTANCE: BULDGE-SPECIMEN-1                                                               
 LARGEST CORRECTION TO DISP.       -0.148       AT NODE          7   DOF  3
   INSTANCE: BULDGE-SPECIMEN-1                                                               
          DISP.    CORRECTION TOO LARGE COMPARED TO DISP.    INCREMENT

  NUMBER OF EQUATIONS =    10911     NUMBER OF FLOATING PT. OPERATIONS =  9.38E+08

  USING THE DIRECT SOLVER WITH  10 PROCESSORS

     CHECK POINT   START OF SOLVER    

     CHECK POINT  END OF SOLVER       

       ELAPSED USER TIME (SEC)      =  0.34000    
       ELAPSED SYSTEM TIME (SEC)    =  1.00000E-02
       ELAPSED TOTAL CPU TIME (SEC) =  0.35000    
       ELAPSED WALLCLOCK TIME (SEC) =          0

               CONVERGENCE CHECKS FOR EQUILIBRIUM ITERATION     2


 AVERAGE FORCE                      2.826E+03   TIME AVG. FORCE       2.896E+03
 LARGEST RESIDUAL FORCE             0.192       AT NODE        668   DOF  3
   INSTANCE: BULDGE-SPECIMEN-1                                                               
 LARGEST INCREMENT OF DISP.         0.273       AT NODE          7   DOF  3
   INSTANCE: BULDGE-SPECIMEN-1                                                               
 LARGEST CORRECTION TO DISP.       -2.631E-02   AT NODE       1055   DOF  3
   INSTANCE: BULDGE-SPECIMEN-1                                                               
          DISP.    CORRECTION TOO LARGE COMPARED TO DISP.    INCREMENT

  NUMBER OF EQUATIONS =    10911     NUMBER OF FLOATING PT. OPERATIONS =  9.38E+08

  USING THE DIRECT SOLVER WITH  10 PROCESSORS

     CHECK POINT   START OF SOLVER    

     CHECK POINT  END OF SOLVER       

       ELAPSED USER TIME (SEC)      =  0.32000    
       ELAPSED SYSTEM TIME (SEC)    =  2.00000E-02
       ELAPSED TOTAL CPU TIME (SEC) =  0.34000    
       ELAPSED WALLCLOCK TIME (SEC) =          0

               CONVERGENCE CHECKS FOR EQUILIBRIUM ITERATION     3


 AVERAGE FORCE                      2.826E+03   TIME AVG. FORCE       2.896E+03
 LARGEST RESIDUAL FORCE             4.611E-03   AT NODE        668   DOF  3
   INSTANCE: BULDGE-SPECIMEN-1                                                               
 LARGEST INCREMENT OF DISP.         0.272       AT NODE          7   DOF  3
   INSTANCE: BULDGE-SPECIMEN-1                                                               
 LARGEST CORRECTION TO DISP.       -1.172E-03   AT NODE       1854   DOF  3
   INSTANCE: BULDGE-SPECIMEN-1                                                               
          THE FORCE     EQUILIBRIUM EQUATIONS HAVE CONVERGED
          TIME INCREMENT MAY NOW INCREASE TO     5.00    
          TIME INCREMENT REDUCED TO    3.00     TO MEET NEXT OUTPUT TIME POINT

 ITERATION SUMMARY FOR THE INCREMENT:   3 TOTAL ITERATIONS, OF WHICH
   0 ARE SEVERE DISCONTINUITY ITERATIONS AND  3 ARE EQUILIBRIUM ITERATIONS.

 TIME INCREMENT COMPLETED   1.00    ,  FRACTION OF STEP COMPLETED  0.600    
 STEP TIME COMPLETED        3.00    ,  TOTAL TIME COMPLETED         8.00    
  
     ASYNCHRONOUS OUTPUT DATABASE FRAME FLUSH STARTED
  


  INCREMENT     4 STARTS. ATTEMPT NUMBER  1, TIME INCREMENT   2.00    

  NUMBER OF EQUATIONS =    10911     NUMBER OF FLOATING PT. OPERATIONS =  9.38E+08

  USING THE DIRECT SOLVER WITH  10 PROCESSORS

     CHECK POINT   START OF SOLVER    

     CHECK POINT  END OF SOLVER       

       ELAPSED USER TIME (SEC)      =  0.37000    
       ELAPSED SYSTEM TIME (SEC)    =   0.0000    
       ELAPSED TOTAL CPU TIME (SEC) =  0.37000    
       ELAPSED WALLCLOCK TIME (SEC) =          0

               CONVERGENCE CHECKS FOR EQUILIBRIUM ITERATION     1


 AVERAGE FORCE                      2.603E+03   TIME AVG. FORCE       2.823E+03
 LARGEST RESIDUAL FORCE             -6.89       AT NODE       1117   DOF  2
   INSTANCE: BULDGE-SPECIMEN-1                                                               
 LARGEST INCREMENT OF DISP.         0.378       AT NODE          7   DOF  3
   INSTANCE: BULDGE-SPECIMEN-1                                                               
 LARGEST CORRECTION TO DISP.       -0.165       AT NODE          7   DOF  3
   INSTANCE: BULDGE-SPECIMEN-1                                                               
          DISP.    CORRECTION TOO LARGE COMPARED TO DISP.    INCREMENT

  NUMBER OF EQUATIONS =    10911     NUMBER OF FLOATING PT. OPERATIONS =  9.38E+08

  USING THE DIRECT SOLVER WITH  10 PROCESSORS

     CHECK POINT   START OF SOLVER    

     CHECK POINT  END OF SOLVER       

       ELAPSED USER TIME (SEC)      =  0.29000    
       ELAPSED SYSTEM TIME (SEC)    =  4.00000E-02
       ELAPSED TOTAL CPU TIME (SEC) =  0.33000    
       ELAPSED WALLCLOCK TIME (SEC) =          0

               CONVERGENCE CHECKS FOR EQUILIBRIUM ITERATION     2


 AVERAGE FORCE                      2.626E+03   TIME AVG. FORCE       2.829E+03
 LARGEST RESIDUAL FORCE            -0.543       AT NODE       1117   DOF  2
   INSTANCE: BULDGE-SPECIMEN-1                                                               
 LARGEST INCREMENT OF DISP.         0.341       AT NODE          7   DOF  3
   INSTANCE: BULDGE-SPECIMEN-1                                                               
 LARGEST CORRECTION TO DISP.       -3.692E-02   AT NODE          7   DOF  3
   INSTANCE: BULDGE-SPECIMEN-1                                                               
 ESTIMATE OF DISP.    CORRECTION   -2.911E-03
 FORCE     EQUILIB. ACCEPTED BASED ON SMALL RESIDUAL AND ESTIMATED CORRECTION
          TIME INCREMENT MAY NOW INCREASE TO     5.00    
          TIME INCREMENT REDUCED TO    1.00     TO MEET NEXT OUTPUT TIME POINT

 ITERATION SUMMARY FOR THE INCREMENT:   2 TOTAL ITERATIONS, OF WHICH
   0 ARE SEVERE DISCONTINUITY ITERATIONS AND  2 ARE EQUILIBRIUM ITERATIONS.

 TIME INCREMENT COMPLETED   2.00    ,  FRACTION OF STEP COMPLETED   1.00    
 STEP TIME COMPLETED        5.00    ,  TOTAL TIME COMPLETED         10.0    


          THE ANALYSIS HAS BEEN COMPLETED



     ANALYSIS SUMMARY:
     TOTAL OF          8  INCREMENTS
                       1  CUTBACKS IN AUTOMATIC INCREMENTATION
                      33  ITERATIONS INCLUDING CONTACT ITERATIONS IF PRESENT
                      33  PASSES THROUGH THE EQUATION SOLVER OF WHICH 
                      33  INVOLVE MATRIX DECOMPOSITION, INCLUDING
                       0  DECOMPOSITION(S) OF THE MASS MATRIX
                       1  REORDERING OF EQUATIONS TO MINIMIZE WAVEFRONT
                       0  ADDITIONAL RESIDUAL EVALUATIONS FOR LINE SEARCHES
                       0  ADDITIONAL OPERATOR EVALUATIONS FOR LINE SEARCHES
                       1  WARNING MESSAGES DURING USER INPUT PROCESSING
                       3  WARNING MESSAGES DURING ANALYSIS
                       0  ANALYSIS WARNINGS ARE NUMERICAL PROBLEM MESSAGES
                       1  ANALYSIS WARNINGS ARE NEGATIVE EIGENVALUE MESSAGES
                       0  ERROR MESSAGES



     JOB TIME SUMMARY
       USER TIME (SEC)      =   19.490    
       SYSTEM TIME (SEC)    =   3.4300    
       TOTAL CPU TIME (SEC) =   22.920    
       WALLCLOCK TIME (SEC) =          3
