 Abaqus/Standard 6.14-1                  DATE 02-Sep-2021 TIME 11:40:47
 SUMMARY OF JOB INFORMATION:
 STEP  INC ATT SEVERE EQUIL TOTAL  TOTAL      STEP       INC OF       DOF    IF
               DISCON ITERS ITERS  TIME/    TIME/LPF    TIME/LPF    MONITOR RIKS
               ITERS               FREQ
   1     1   1U    0     2     2  0.00       0.00       5.000     
   1     1   2     0     5     5  1.25       1.25       1.250     
   1     2   1     0     5     5  2.50       2.50       1.250     
   1     3   1     0     3     3  3.75       3.75       1.250     
   1     4   1     0     5     5  5.00       5.00       1.250     
   2     1   1     0     4     4  6.00       1.00       1.000     
   2     2   1     0     4     4  7.00       2.00       1.000     
   2     3   1     0     3     3  8.00       3.00       1.000     
   2     4   1     0     2     2  10.0       5.00       2.000     
                          
 THE ANALYSIS HAS COMPLETED SUCCESSFULLY
