*Heading
** Job name: Job-1 Model name: Model-1
** Generated by: Abaqus/CAE 6.14-1
*Preprint, echo=NO, model=NO, history=NO, contact=NO
**
** PARTS
**
*Part, name=test-sample
*Node
      1,           1.,           1.,           1.
      2,           1.,           0.,           1.
      3,           1.,           1.,           0.
      4,           1.,           0.,           0.
      5,           0.,           1.,           1.
      6,           0.,           0.,           1.
      7,           0.,           1.,           0.
      8,           0.,           0.,           0.
      9,           0.,           1.,          0.5
     10,           0.,          0.5,           0.
     11,           0.,           0.,          0.5
     12,           0.,          0.5,           1.
     13,           1.,          0.5,           1.
     14,           1.,           0.,          0.5
     15,           1.,          0.5,           0.
     16,           1.,           1.,          0.5
     17,          0.5,           0.,           1.
     18,          0.5,           1.,           1.
     19,          0.5,           0.,           0.
     20,          0.5,           1.,           0.
*Element, type=C3D20R
1,  5,  6,  8,  7,  1,  2,  4,  3, 12, 11, 10,  9, 13, 14, 15,
   16, 18, 17, 19, 20
*Nset, nset=block, generate
  1,  20,   1
*Elset, elset=block
 1,
** Section: tissue
*Solid Section, elset=block, material=soft-tissue
,
*End Part
**  
**
** ASSEMBLY
**
*Assembly, name=Assembly
**  
*Instance, name=test-sample-1, part=test-sample
*End Instance
**  
*Nset, nset=pull, instance=test-sample-1
  1,  2,  3,  4, 13, 14, 15, 16
*Elset, elset=pull, instance=test-sample-1
 1,
*Nset, nset=x, instance=test-sample-1, generate
  5,  12,   1
*Elset, elset=x, instance=test-sample-1
 1,
*Nset, nset=y, instance=test-sample-1
  2,  4,  6,  8, 11, 14, 17, 19
*Elset, elset=y, instance=test-sample-1
 1,
*Nset, nset=z, instance=test-sample-1
  3,  4,  7,  8, 10, 15, 19, 20
*Elset, elset=z, instance=test-sample-1
 1,
*End Assembly
*Amplitude, name=amp-1
0.0, 0.0,
0.1016949152542373, 0.01652390242088653,
0.2033898305084746, 0.032447812684717775,
0.3050847457627119, 0.04865852779291832,
0.4067796610169492, 0.06561816078415614,
0.5084745762711864, 0.08342379942911796,
0.6101694915254238, 0.09868634516002543,
0.7118644067796611, 0.11403659416986077,
0.8135593220338984, 0.13180503513716038,
0.9152542372881356, 0.14977521302714997,
1.0169491525423728, 0.16504370201163046,
1.1186440677966103, 0.18402798022931985,
1.2203389830508475, 0.1991094197698424,
1.3220338983050848, 0.21575695962825517,
1.4237288135593222, 0.23425737868632188,
1.5254237288135597, 0.24988588785216087,
1.6271186440677967, 0.26939935665801074,
1.7288135593220342, 0.2842086563124035,
1.8305084745762712, 0.29562062575671877,
1.9322033898305089, 0.31002350764578535,
** ... 40 like lines cut
**
** MATERIALS
** 
*Material, name=soft-tissue
*Hyperelastic, n=2, ogden
4.67766444, 3.0, 2.000000014901161, 100.0, 0.21378190180739, 0.4999999962747097
*Time Points, name=time-points-1
0.0, 
0.1016949152542373, 
0.2033898305084746, 
0.3050847457627119, 
0.4067796610169492, 
0.5084745762711864, 
0.6101694915254238, 
0.7118644067796611, 
0.8135593220338984, 
0.9152542372881356, 
1.0169491525423728, 
1.1186440677966103, 
1.2203389830508475, 
1.3220338983050848, 
1.4237288135593222, 
1.5254237288135597, 
1.6271186440677967, 
1.7288135593220342, 
1.8305084745762712, 
1.9322033898305089, 
** ... 40 like lines cut
**
** BOUNDARY CONDITIONS
** 
** Name: BC-1 Type: Displacement/Rotation
*Boundary
x, 1, 1
** Name: BC-2 Type: Displacement/Rotation
*Boundary
y, 2, 2
** Name: BC-3 Type: Displacement/Rotation
*Boundary
z, 3, 3
** ----------------------------------------------------------------
** 
** STEP: load
** 
*Step, name=load, nlgeom=YES, inc=1000
*Static
6.0, 6.0, 0.006, 6.0
**
** 
** BOUNDARY CONDITIONS
** 
** Name: pull Type: Displacement/Rotation
*Boundary, amplitude=amp-1
pull, 1, 1, 0.24650858656498176
** 
** OUTPUT REQUESTS
** 
*Restart, write, frequency=0
** 
** FIELD OUTPUT: F-Output-1
** 
*Output, field, time points=time-points-1
*Node Output
CF, RF, U
*Element Output, directions=YES
E, S
** 
** HISTORY OUTPUT: H-Output-1
** 
*Output, history, variable=PRESELECT
*End Step