1

   Abaqus 6.14-1                                  Date 02-Sep-2021   Time 11:30:39
   For use at UNIVERSITY OF CAPE TOWN under license from Dassault Systemes or its subsidiary.

                                                                                 
                                                                                 
 STEP    1     INCREMENT     1     STEP TIME    0.00    


                        S T E P       1     S T A T I C   A N A L Y S I S


                                                                                          

     AUTOMATIC TIME CONTROL WITH -
          A SUGGESTED INITIAL TIME INCREMENT OF                 6.00    
          AND A TOTAL TIME PERIOD OF                            6.00    
          THE MINIMUM TIME INCREMENT ALLOWED IS                6.000E-03
          THE MAXIMUM TIME INCREMENT ALLOWED IS                 6.00    

     LINEAR EQUATION SOLVER TYPE         DIRECT SPARSE

 CONVERGENCE TOLERANCE PARAMETERS FOR FORCE    
     CRITERION FOR RESIDUAL FORCE     FOR A NONLINEAR PROBLEM          5.000E-03
     CRITERION FOR DISP.    CORRECTION IN A NONLINEAR PROBLEM          1.000E-02
     INITIAL VALUE OF TIME AVERAGE FORCE                               1.000E-02
     AVERAGE FORCE     IS TIME AVERAGE FORCE    
     ALTERNATE CRIT. FOR RESIDUAL FORCE     FOR A NONLINEAR PROBLEM    2.000E-02
     CRITERION FOR ZERO FORCE     RELATIVE TO TIME AVRG. FORCE         1.000E-05
     CRITERION FOR RESIDUAL FORCE     WHEN THERE IS ZERO FLUX          1.000E-05
     CRITERION FOR DISP.    CORRECTION WHEN THERE IS ZERO FLUX         1.000E-03
     CRITERION FOR RESIDUAL FORCE     FOR A LINEAR INCREMENT           1.000E-08
     FIELD CONVERSION RATIO                                             1.00    
     CRITERION FOR ZERO FORCE     REL. TO TIME AVRG. MAX. FORCE        1.000E-05
     CRITERION FOR ZERO DISP.    RELATIVE TO CHARACTERISTIC LENGTH     1.000E-08

     VOLUMETRIC STRAIN COMPATIBILITY TOLERANCE FOR HYBRID SOLIDS       1.000E-05
     AXIAL STRAIN COMPATIBILITY TOLERANCE FOR HYBRID BEAMS             1.000E-05
     TRANS. SHEAR STRAIN COMPATIBILITY TOLERANCE FOR HYBRID BEAMS      1.000E-05
     SOFT CONTACT CONSTRAINT COMPATIBILITY TOLERANCE FOR P>P0          5.000E-03
     SOFT CONTACT CONSTRAINT COMPATIBILITY TOLERANCE FOR P=0.0         0.100    
     CONTACT FORCE ERROR TOLERANCE FOR CONVERT SDI=YES                 1.00    
     DISPLACEMENT COMPATIBILITY TOLERANCE FOR DCOUP ELEMENTS           1.000E-05
     ROTATION COMPATIBILITY TOLERANCE FOR DCOUP ELEMENTS               1.000E-05

 EQUILIBRIUM WILL BE CHECKED FOR SEVERE DISCONTINUITY ITERATIONS

 TIME INCREMENTATION CONTROL PARAMETERS:
     FIRST EQUILIBRIUM ITERATION FOR CONSECUTIVE DIVERGENCE CHECK              4
     EQUILIBRIUM ITERATION AT WHICH LOG. CONVERGENCE RATE CHECK BEGINS         8
     EQUILIBRIUM ITERATION AFTER WHICH ALTERNATE RESIDUAL IS USED              9
     MAXIMUM EQUILIBRIUM ITERATIONS ALLOWED                                   16
     EQUILIBRIUM ITERATION COUNT FOR CUT-BACK IN NEXT INCREMENT               10
     MAXIMUM EQUILIB. ITERS IN TWO INCREMENTS FOR TIME INCREMENT INCREASE      4
     MAXIMUM ITERATIONS FOR SEVERE DISCONTINUITIES                            50
     MAXIMUM CUT-BACKS ALLOWED IN AN INCREMENT                                 5
     MAXIMUM DISCON. ITERS IN TWO INCREMENTS FOR TIME INCREMENT INCREASE      50
     MAXIMUM CONTACT AUGMENTATIONS FOR *SURFACE BEHAVIOR,AUGMENTED LAGRANGE   50
     CUT-BACK FACTOR AFTER DIVERGENCE                                 0.2500    
     CUT-BACK FACTOR FOR TOO SLOW CONVERGENCE                         0.5000    
     CUT-BACK FACTOR AFTER TOO MANY EQUILIBRIUM ITERATIONS            0.7500    
     CUT-BACK FACTOR AFTER TOO MANY SEVERE DISCONTINUITY ITERATIONS   0.2500    
     CUT-BACK FACTOR AFTER PROBLEMS IN ELEMENT ASSEMBLY               0.2500    
     INCREASE FACTOR AFTER TWO INCREMENTS THAT CONVERGE QUICKLY        1.500    
     MAX. TIME INCREMENT INCREASE FACTOR ALLOWED                       1.500    
     MAX. TIME INCREMENT INCREASE FACTOR ALLOWED (DYNAMICS)            1.250    
     MAX. TIME INCREMENT INCREASE FACTOR ALLOWED (DIFFUSION)           2.000    
     MINIMUM TIME INCREMENT RATIO FOR EXTRAPOLATION TO OCCUR          0.1000    
     MAX. RATIO OF TIME INCREMENT TO STABILITY LIMIT                   1.000    
     FRACTION OF STABILITY LIMIT FOR NEW TIME INCREMENT               0.9500    
     TIME INCREMENT INCREASE FACTOR BEFORE A TIME POINT                1.000    
     GLOBAL STABILIZATION CONTROL IS NOT USED

          PRINT OF INCREMENT NUMBER, TIME, ETC., EVERY    1  INCREMENTS

     THE MAXIMUM NUMBER OF INCREMENTS IN THIS STEP IS                    1000

          LARGE DISPLACEMENT THEORY WILL BE USED

     LINEAR EXTRAPOLATION WILL BE USED

     CHARACTERISTIC ELEMENT LENGTH      1.00    

     DETAILS REGARDING ACTUAL SOLUTION WAVEFRONT REQUESTED

     DETAILED OUTPUT OF DIAGNOSTICS TO DATABASE REQUESTED

     PRINT OF INCREMENT NUMBER, TIME, ETC., TO THE MESSAGE FILE EVERY     1  INCREMENTS
          THE INITIAL TIME INCREMENT WAS REDUCED TO   0.102     TO MEET THE NEXT OUTPUT TIME POINT

     COLLECTING MODEL CONSTRAINT INFORMATION FOR OVERCONSTRAINT CHECKS

     COLLECTING STEP CONSTRAINT INFORMATION FOR OVERCONSTRAINT CHECKS


  INCREMENT     1 STARTS. ATTEMPT NUMBER  1, TIME INCREMENT  0.102    

  NUMBER OF EQUATIONS =       60     NUMBER OF FLOATING PT. OPERATIONS =  7.38E+04

     CHECK POINT   START OF SOLVER    

     CHECK POINT  END OF SOLVER       

       ELAPSED USER TIME (SEC)      =   0.0000    
       ELAPSED SYSTEM TIME (SEC)    =   0.0000    
       ELAPSED TOTAL CPU TIME (SEC) =   0.0000    
       ELAPSED WALLCLOCK TIME (SEC) =          0

               CONVERGENCE CHECKS FOR EQUILIBRIUM ITERATION     1


 AVERAGE FORCE                      3.789E-03   TIME AVG. FORCE       3.789E-03
 LARGEST RESIDUAL FORCE             2.152E-04   AT NODE         18   DOF  3
   INSTANCE: TEST-SAMPLE-1                                                                   
 LARGEST INCREMENT OF DISP.         4.073E-03   AT NODE          1   DOF  1
   INSTANCE: TEST-SAMPLE-1                                                                   
 LARGEST CORRECTION TO DISP.        4.073E-03   AT NODE          1   DOF  1
   INSTANCE: TEST-SAMPLE-1                                                                   
          FORCE     EQUILIBRIUM NOT ACHIEVED WITHIN TOLERANCE.

  NUMBER OF EQUATIONS =       60     NUMBER OF FLOATING PT. OPERATIONS =  7.38E+04

     CHECK POINT   START OF SOLVER    

     CHECK POINT  END OF SOLVER       

       ELAPSED USER TIME (SEC)      =  1.00000E-02
       ELAPSED SYSTEM TIME (SEC)    =   0.0000    
       ELAPSED TOTAL CPU TIME (SEC) =  1.00000E-02
       ELAPSED WALLCLOCK TIME (SEC) =          0

               CONVERGENCE CHECKS FOR EQUILIBRIUM ITERATION     2


 AVERAGE FORCE                      3.731E-03   TIME AVG. FORCE       3.731E-03
 LARGEST RESIDUAL FORCE             3.771E-09   AT NODE         16   DOF  2
   INSTANCE: TEST-SAMPLE-1                                                                   
 LARGEST INCREMENT OF DISP.         4.073E-03   AT NODE          1   DOF  1
   INSTANCE: TEST-SAMPLE-1                                                                   
 LARGEST CORRECTION TO DISP.        2.732E-05   AT NODE          2   DOF  3
   INSTANCE: TEST-SAMPLE-1                                                                   
          THE FORCE     EQUILIBRIUM EQUATIONS HAVE CONVERGED
          TIME INCREMENT MAY NOW INCREASE TO     6.00    
          TIME INCREMENT REDUCED TO   0.102     TO MEET NEXT OUTPUT TIME POINT

 ITERATION SUMMARY FOR THE INCREMENT:   2 TOTAL ITERATIONS, OF WHICH
   0 ARE SEVERE DISCONTINUITY ITERATIONS AND  2 ARE EQUILIBRIUM ITERATIONS.

 TIME INCREMENT COMPLETED  0.102    ,  FRACTION OF STEP COMPLETED  1.695E-02
 STEP TIME COMPLETED       0.102    ,  TOTAL TIME COMPLETED        0.102    


  INCREMENT     2 STARTS. ATTEMPT NUMBER  1, TIME INCREMENT  0.102    

  NUMBER OF EQUATIONS =       60     NUMBER OF FLOATING PT. OPERATIONS =  7.38E+04

     CHECK POINT   START OF SOLVER    

     CHECK POINT  END OF SOLVER       

       ELAPSED USER TIME (SEC)      =   0.0000    
       ELAPSED SYSTEM TIME (SEC)    =   0.0000    
       ELAPSED TOTAL CPU TIME (SEC) =   0.0000    
       ELAPSED WALLCLOCK TIME (SEC) =          0

               CONVERGENCE CHECKS FOR EQUILIBRIUM ITERATION     1


 AVERAGE FORCE                      9.381E-03   TIME AVG. FORCE       6.556E-03
 LARGEST RESIDUAL FORCE             1.132E-06   AT NODE         20   DOF  2
   INSTANCE: TEST-SAMPLE-1                                                                   
 LARGEST INCREMENT OF DISP.         3.925E-03   AT NODE          1   DOF  1
   INSTANCE: TEST-SAMPLE-1                                                                   
 LARGEST CORRECTION TO DISP.       -1.479E-04   AT NODE          1   DOF  1
   INSTANCE: TEST-SAMPLE-1                                                                   
 ESTIMATE OF DISP.    CORRECTION   -2.971E-07
 FORCE     EQUILIB. ACCEPTED BASED ON SMALL RESIDUAL AND ESTIMATED CORRECTION
          TIME INCREMENT MAY NOW INCREASE TO     6.00    
          TIME INCREMENT REDUCED TO   0.102     TO MEET NEXT OUTPUT TIME POINT

 ITERATION SUMMARY FOR THE INCREMENT:   1 TOTAL ITERATIONS, OF WHICH
   0 ARE SEVERE DISCONTINUITY ITERATIONS AND  1 ARE EQUILIBRIUM ITERATIONS.

 TIME INCREMENT COMPLETED  0.102    ,  FRACTION OF STEP COMPLETED  3.390E-02
 STEP TIME COMPLETED       0.203    ,  TOTAL TIME COMPLETED        0.203    


  INCREMENT     3 STARTS. ATTEMPT NUMBER  1, TIME INCREMENT  0.102    

  NUMBER OF EQUATIONS =       60     NUMBER OF FLOATING PT. OPERATIONS =  7.38E+04

     CHECK POINT   START OF SOLVER    

     CHECK POINT  END OF SOLVER       

       ELAPSED USER TIME (SEC)      =   0.0000    
       ELAPSED SYSTEM TIME (SEC)    =   0.0000    
       ELAPSED TOTAL CPU TIME (SEC) =   0.0000    
       ELAPSED WALLCLOCK TIME (SEC) =          0

               CONVERGENCE CHECKS FOR EQUILIBRIUM ITERATION     1


 AVERAGE FORCE                      4.350E-02   TIME AVG. FORCE       1.887E-02
 LARGEST RESIDUAL FORCE            -1.557E-07   AT NODE         13   DOF  3
   INSTANCE: TEST-SAMPLE-1                                                                   
 LARGEST INCREMENT OF DISP.         3.996E-03   AT NODE          1   DOF  1
   INSTANCE: TEST-SAMPLE-1                                                                   
 LARGEST CORRECTION TO DISP.        7.622E-05   AT NODE          3   DOF  2
   INSTANCE: TEST-SAMPLE-1                                                                   
 ESTIMATE OF DISP.    CORRECTION   -1.640E-08
 FORCE     EQUILIB. ACCEPTED BASED ON SMALL RESIDUAL AND ESTIMATED CORRECTION
          TIME INCREMENT MAY NOW INCREASE TO     6.00    
          TIME INCREMENT REDUCED TO   0.102     TO MEET NEXT OUTPUT TIME POINT

 ITERATION SUMMARY FOR THE INCREMENT:   1 TOTAL ITERATIONS, OF WHICH
   0 ARE SEVERE DISCONTINUITY ITERATIONS AND  1 ARE EQUILIBRIUM ITERATIONS.

 TIME INCREMENT COMPLETED  0.102    ,  FRACTION OF STEP COMPLETED  5.085E-02
 STEP TIME COMPLETED       0.305    ,  TOTAL TIME COMPLETED        0.305    


  INCREMENT     4 STARTS. ATTEMPT NUMBER  1, TIME INCREMENT  0.102    

  NUMBER OF EQUATIONS =       60     NUMBER OF FLOATING PT. OPERATIONS =  7.38E+04

     CHECK POINT   START OF SOLVER    

     CHECK POINT  END OF SOLVER       

       ELAPSED USER TIME (SEC)      =   0.0000    
       ELAPSED SYSTEM TIME (SEC)    =   0.0000    
       ELAPSED TOTAL CPU TIME (SEC) =   0.0000    
       ELAPSED WALLCLOCK TIME (SEC) =          0

               CONVERGENCE CHECKS FOR EQUILIBRIUM ITERATION     1


 AVERAGE FORCE                      6.096E-02   TIME AVG. FORCE       2.939E-02
 LARGEST RESIDUAL FORCE            -2.748E-07   AT NODE         20   DOF  2
   INSTANCE: TEST-SAMPLE-1                                                                   
 LARGEST INCREMENT OF DISP.         4.181E-03   AT NODE          1   DOF  1
   INSTANCE: TEST-SAMPLE-1                                                                   
 LARGEST CORRECTION TO DISP.        1.846E-04   AT NODE          1   DOF  1
   INSTANCE: TEST-SAMPLE-1                                                                   
 ESTIMATE OF DISP.    CORRECTION   -5.001E-08
 FORCE     EQUILIB. ACCEPTED BASED ON SMALL RESIDUAL AND ESTIMATED CORRECTION
          TIME INCREMENT MAY NOW INCREASE TO     6.00    
          TIME INCREMENT REDUCED TO   0.102     TO MEET NEXT OUTPUT TIME POINT

 ITERATION SUMMARY FOR THE INCREMENT:   1 TOTAL ITERATIONS, OF WHICH
   0 ARE SEVERE DISCONTINUITY ITERATIONS AND  1 ARE EQUILIBRIUM ITERATIONS.

 TIME INCREMENT COMPLETED  0.102    ,  FRACTION OF STEP COMPLETED  6.780E-02
 STEP TIME COMPLETED       0.407    ,  TOTAL TIME COMPLETED        0.407    


  INCREMENT     5 STARTS. ATTEMPT NUMBER  1, TIME INCREMENT  0.102    

  NUMBER OF EQUATIONS =       60     NUMBER OF FLOATING PT. OPERATIONS =  7.38E+04

     CHECK POINT   START OF SOLVER    

     CHECK POINT  END OF SOLVER       

       ELAPSED USER TIME (SEC)      =   0.0000    
       ELAPSED SYSTEM TIME (SEC)    =   0.0000    
       ELAPSED TOTAL CPU TIME (SEC) =   0.0000    
       ELAPSED WALLCLOCK TIME (SEC) =          0

               CONVERGENCE CHECKS FOR EQUILIBRIUM ITERATION     1


 AVERAGE FORCE                      4.062E-02   TIME AVG. FORCE       3.164E-02
 LARGEST RESIDUAL FORCE            -6.935E-07   AT NODE         13   DOF  3
   INSTANCE: TEST-SAMPLE-1                                                                   
 LARGEST INCREMENT OF DISP.         4.389E-03   AT NODE          1   DOF  1
   INSTANCE: TEST-SAMPLE-1                                                                   
 LARGEST CORRECTION TO DISP.        2.085E-04   AT NODE          1   DOF  1
   INSTANCE: TEST-SAMPLE-1                                                                   
 ESTIMATE OF DISP.    CORRECTION   -1.009E-07
 FORCE     EQUILIB. ACCEPTED BASED ON SMALL RESIDUAL AND ESTIMATED CORRECTION
          TIME INCREMENT MAY NOW INCREASE TO     6.00    
          TIME INCREMENT REDUCED TO   0.102     TO MEET NEXT OUTPUT TIME POINT

 ITERATION SUMMARY FOR THE INCREMENT:   1 TOTAL ITERATIONS, OF WHICH
   0 ARE SEVERE DISCONTINUITY ITERATIONS AND  1 ARE EQUILIBRIUM ITERATIONS.

 TIME INCREMENT COMPLETED  0.102    ,  FRACTION OF STEP COMPLETED  8.475E-02
 STEP TIME COMPLETED       0.508    ,  TOTAL TIME COMPLETED        0.508    


  INCREMENT     6 STARTS. ATTEMPT NUMBER  1, TIME INCREMENT  0.102    

  NUMBER OF EQUATIONS =       60     NUMBER OF FLOATING PT. OPERATIONS =  7.38E+04

     CHECK POINT   START OF SOLVER    

     CHECK POINT  END OF SOLVER       

       ELAPSED USER TIME (SEC)      =   0.0000    
       ELAPSED SYSTEM TIME (SEC)    =   0.0000    
       ELAPSED TOTAL CPU TIME (SEC) =   0.0000    
       ELAPSED WALLCLOCK TIME (SEC) =          0

               CONVERGENCE CHECKS FOR EQUILIBRIUM ITERATION     1


 AVERAGE FORCE                      3.353E-02   TIME AVG. FORCE       3.195E-02
 LARGEST RESIDUAL FORCE             4.489E-05   AT NODE         18   DOF  2
   INSTANCE: TEST-SAMPLE-1                                                                   
 LARGEST INCREMENT OF DISP.         3.762E-03   AT NODE          1   DOF  1
   INSTANCE: TEST-SAMPLE-1                                                                   
 LARGEST CORRECTION TO DISP.       -6.269E-04   AT NODE          1   DOF  1
   INSTANCE: TEST-SAMPLE-1                                                                   
 ESTIMATE OF DISP.    CORRECTION   -1.392E-05
 FORCE     EQUILIB. ACCEPTED BASED ON SMALL RESIDUAL AND ESTIMATED CORRECTION
          TIME INCREMENT MAY NOW INCREASE TO     6.00    
          TIME INCREMENT REDUCED TO   0.102     TO MEET NEXT OUTPUT TIME POINT

 ITERATION SUMMARY FOR THE INCREMENT:   1 TOTAL ITERATIONS, OF WHICH
   0 ARE SEVERE DISCONTINUITY ITERATIONS AND  1 ARE EQUILIBRIUM ITERATIONS.

 TIME INCREMENT COMPLETED  0.102    ,  FRACTION OF STEP COMPLETED  0.102    
 STEP TIME COMPLETED       0.610    ,  TOTAL TIME COMPLETED        0.610    


  INCREMENT     7 STARTS. ATTEMPT NUMBER  1, TIME INCREMENT  0.102    

  NUMBER OF EQUATIONS =       60     NUMBER OF FLOATING PT. OPERATIONS =  7.38E+04

     CHECK POINT   START OF SOLVER    

     CHECK POINT  END OF SOLVER       

       ELAPSED USER TIME (SEC)      =   0.0000    
       ELAPSED SYSTEM TIME (SEC)    =   0.0000    
       ELAPSED TOTAL CPU TIME (SEC) =   0.0000    
       ELAPSED WALLCLOCK TIME (SEC) =          0

               CONVERGENCE CHECKS FOR EQUILIBRIUM ITERATION     1


 AVERAGE FORCE                      6.102E-02   TIME AVG. FORCE       3.611E-02
 LARGEST RESIDUAL FORCE             1.801E-06   AT NODE         13   DOF  3
   INSTANCE: TEST-SAMPLE-1                                                                   
 LARGEST INCREMENT OF DISP.         3.784E-03   AT NODE          1   DOF  1
   INSTANCE: TEST-SAMPLE-1                                                                   
 LARGEST CORRECTION TO DISP.        1.810E-04   AT NODE          3   DOF  2
   INSTANCE: TEST-SAMPLE-1                                                                   
 ESTIMATE OF DISP.    CORRECTION    1.764E-07
 FORCE     EQUILIB. ACCEPTED BASED ON SMALL RESIDUAL AND ESTIMATED CORRECTION
          TIME INCREMENT MAY NOW INCREASE TO     6.00    
          TIME INCREMENT REDUCED TO   0.102     TO MEET NEXT OUTPUT TIME POINT

 ITERATION SUMMARY FOR THE INCREMENT:   1 TOTAL ITERATIONS, OF WHICH
   0 ARE SEVERE DISCONTINUITY ITERATIONS AND  1 ARE EQUILIBRIUM ITERATIONS.

 TIME INCREMENT COMPLETED  0.102    ,  FRACTION OF STEP COMPLETED  0.119    
 STEP TIME COMPLETED       0.712    ,  TOTAL TIME COMPLETED        0.712    


  INCREMENT     8 STARTS. ATTEMPT NUMBER  1, TIME INCREMENT  0.102    

  NUMBER OF EQUATIONS =       60     NUMBER OF FLOATING PT. OPERATIONS =  7.38E+04

     CHECK POINT   START OF SOLVER    

     CHECK POINT  END OF SOLVER       

       ELAPSED USER TIME (SEC)      =   0.0000    
       ELAPSED SYSTEM TIME (SEC)    =   0.0000    
       ELAPSED TOTAL CPU TIME (SEC) =   0.0000    
       ELAPSED WALLCLOCK TIME (SEC) =          0

               CONVERGENCE CHECKS FOR EQUILIBRIUM ITERATION     1


 AVERAGE FORCE                      4.994E-02   TIME AVG. FORCE       3.784E-02
 LARGEST RESIDUAL FORCE             7.735E-06   AT NODE         18   DOF  2
   INSTANCE: TEST-SAMPLE-1                                                                   
 LARGEST INCREMENT OF DISP.         4.380E-03   AT NODE          1   DOF  1
   INSTANCE: TEST-SAMPLE-1                                                                   
 LARGEST CORRECTION TO DISP.        5.961E-04   AT NODE          1   DOF  1
   INSTANCE: TEST-SAMPLE-1                                                                   
 ESTIMATE OF DISP.    CORRECTION    2.306E-06
 FORCE     EQUILIB. ACCEPTED BASED ON SMALL RESIDUAL AND ESTIMATED CORRECTION
          TIME INCREMENT MAY NOW INCREASE TO     6.00    
          TIME INCREMENT REDUCED TO   0.102     TO MEET NEXT OUTPUT TIME POINT

 ITERATION SUMMARY FOR THE INCREMENT:   1 TOTAL ITERATIONS, OF WHICH
   0 ARE SEVERE DISCONTINUITY ITERATIONS AND  1 ARE EQUILIBRIUM ITERATIONS.

 TIME INCREMENT COMPLETED  0.102    ,  FRACTION OF STEP COMPLETED  0.136    
 STEP TIME COMPLETED       0.814    ,  TOTAL TIME COMPLETED        0.814    


  INCREMENT     9 STARTS. ATTEMPT NUMBER  1, TIME INCREMENT  0.102    

  NUMBER OF EQUATIONS =       60     NUMBER OF FLOATING PT. OPERATIONS =  7.38E+04

     CHECK POINT   START OF SOLVER    

     CHECK POINT  END OF SOLVER       

       ELAPSED USER TIME (SEC)      =   0.0000    
       ELAPSED SYSTEM TIME (SEC)    =   0.0000    
       ELAPSED TOTAL CPU TIME (SEC) =   0.0000    
       ELAPSED WALLCLOCK TIME (SEC) =          0

               CONVERGENCE CHECKS FOR EQUILIBRIUM ITERATION     1


 AVERAGE FORCE                      6.042E-02   TIME AVG. FORCE       4.034E-02
 LARGEST RESIDUAL FORCE             6.134E-06   AT NODE         18   DOF  2
   INSTANCE: TEST-SAMPLE-1                                                                   
 LARGEST INCREMENT OF DISP.         4.430E-03   AT NODE          1   DOF  1
   INSTANCE: TEST-SAMPLE-1                                                                   
 LARGEST CORRECTION TO DISP.        2.696E-04   AT NODE          5   DOF  2
   INSTANCE: TEST-SAMPLE-1                                                                   
 ESTIMATE OF DISP.    CORRECTION    5.206E-07
 FORCE     EQUILIB. ACCEPTED BASED ON SMALL RESIDUAL AND ESTIMATED CORRECTION
          TIME INCREMENT MAY NOW INCREASE TO     6.00    
          TIME INCREMENT REDUCED TO   0.102     TO MEET NEXT OUTPUT TIME POINT

 ITERATION SUMMARY FOR THE INCREMENT:   1 TOTAL ITERATIONS, OF WHICH
   0 ARE SEVERE DISCONTINUITY ITERATIONS AND  1 ARE EQUILIBRIUM ITERATIONS.

 TIME INCREMENT COMPLETED  0.102    ,  FRACTION OF STEP COMPLETED  0.153    
 STEP TIME COMPLETED       0.915    ,  TOTAL TIME COMPLETED        0.915    


  INCREMENT    10 STARTS. ATTEMPT NUMBER  1, TIME INCREMENT  0.102    

  NUMBER OF EQUATIONS =       60     NUMBER OF FLOATING PT. OPERATIONS =  7.38E+04

     CHECK POINT   START OF SOLVER    

     CHECK POINT  END OF SOLVER       

       ELAPSED USER TIME (SEC)      =  1.00000E-02
       ELAPSED SYSTEM TIME (SEC)    =   0.0000    
       ELAPSED TOTAL CPU TIME (SEC) =  1.00000E-02
       ELAPSED WALLCLOCK TIME (SEC) =          0

               CONVERGENCE CHECKS FOR EQUILIBRIUM ITERATION     1


 AVERAGE FORCE                      7.029E-02   TIME AVG. FORCE       4.334E-02
 LARGEST RESIDUAL FORCE             1.005E-04   AT NODE         20   DOF  2
   INSTANCE: TEST-SAMPLE-1                                                                   
 LARGEST INCREMENT OF DISP.         3.764E-03   AT NODE          1   DOF  1
   INSTANCE: TEST-SAMPLE-1                                                                   
 LARGEST CORRECTION TO DISP.       -6.660E-04   AT NODE          1   DOF  1
   INSTANCE: TEST-SAMPLE-1                                                                   
 ESTIMATE OF DISP.    CORRECTION   -1.877E-05
 FORCE     EQUILIB. ACCEPTED BASED ON SMALL RESIDUAL AND ESTIMATED CORRECTION
          TIME INCREMENT MAY NOW INCREASE TO     6.00    
          TIME INCREMENT REDUCED TO   0.102     TO MEET NEXT OUTPUT TIME POINT

 ITERATION SUMMARY FOR THE INCREMENT:   1 TOTAL ITERATIONS, OF WHICH
   0 ARE SEVERE DISCONTINUITY ITERATIONS AND  1 ARE EQUILIBRIUM ITERATIONS.

 TIME INCREMENT COMPLETED  0.102    ,  FRACTION OF STEP COMPLETED  0.169    
 STEP TIME COMPLETED        1.02    ,  TOTAL TIME COMPLETED         1.02    


  INCREMENT    11 STARTS. ATTEMPT NUMBER  1, TIME INCREMENT  0.102    

  NUMBER OF EQUATIONS =       60     NUMBER OF FLOATING PT. OPERATIONS =  7.38E+04

     CHECK POINT   START OF SOLVER    

     CHECK POINT  END OF SOLVER       

       ELAPSED USER TIME (SEC)      =   0.0000    
       ELAPSED SYSTEM TIME (SEC)    =   0.0000    
       ELAPSED TOTAL CPU TIME (SEC) =   0.0000    
       ELAPSED WALLCLOCK TIME (SEC) =          0

               CONVERGENCE CHECKS FOR EQUILIBRIUM ITERATION     1


 AVERAGE FORCE                      8.366E-02   TIME AVG. FORCE       4.700E-02
 LARGEST RESIDUAL FORCE             2.578E-05   AT NODE         18   DOF  3
   INSTANCE: TEST-SAMPLE-1                                                                   
 LARGEST INCREMENT OF DISP.         4.680E-03   AT NODE          1   DOF  1
   INSTANCE: TEST-SAMPLE-1                                                                   
 LARGEST CORRECTION TO DISP.        9.160E-04   AT NODE          1   DOF  1
   INSTANCE: TEST-SAMPLE-1                                                                   
 ESTIMATE OF DISP.    CORRECTION    8.181E-06
 FORCE     EQUILIB. ACCEPTED BASED ON SMALL RESIDUAL AND ESTIMATED CORRECTION
          TIME INCREMENT MAY NOW INCREASE TO     6.00    
          TIME INCREMENT REDUCED TO   0.102     TO MEET NEXT OUTPUT TIME POINT

 ITERATION SUMMARY FOR THE INCREMENT:   1 TOTAL ITERATIONS, OF WHICH
   0 ARE SEVERE DISCONTINUITY ITERATIONS AND  1 ARE EQUILIBRIUM ITERATIONS.

 TIME INCREMENT COMPLETED  0.102    ,  FRACTION OF STEP COMPLETED  0.186    
 STEP TIME COMPLETED        1.12    ,  TOTAL TIME COMPLETED         1.12    


  INCREMENT    12 STARTS. ATTEMPT NUMBER  1, TIME INCREMENT  0.102    

  NUMBER OF EQUATIONS =       60     NUMBER OF FLOATING PT. OPERATIONS =  7.38E+04

     CHECK POINT   START OF SOLVER    

     CHECK POINT  END OF SOLVER       

       ELAPSED USER TIME (SEC)      =   0.0000    
       ELAPSED SYSTEM TIME (SEC)    =   0.0000    
       ELAPSED TOTAL CPU TIME (SEC) =   0.0000    
       ELAPSED WALLCLOCK TIME (SEC) =          0

               CONVERGENCE CHECKS FOR EQUILIBRIUM ITERATION     1


 AVERAGE FORCE                      9.532E-02   TIME AVG. FORCE       5.103E-02
 LARGEST RESIDUAL FORCE             1.912E-04   AT NODE         18   DOF  2
   INSTANCE: TEST-SAMPLE-1                                                                   
 LARGEST INCREMENT OF DISP.         3.718E-03   AT NODE          1   DOF  1
   INSTANCE: TEST-SAMPLE-1                                                                   
 LARGEST CORRECTION TO DISP.       -9.621E-04   AT NODE          1   DOF  1
   INSTANCE: TEST-SAMPLE-1                                                                   
          DISP.    CORRECTION TOO LARGE COMPARED TO DISP.    INCREMENT

  NUMBER OF EQUATIONS =       60     NUMBER OF FLOATING PT. OPERATIONS =  7.38E+04

     CHECK POINT   START OF SOLVER    

     CHECK POINT  END OF SOLVER       

       ELAPSED USER TIME (SEC)      =   0.0000    
       ELAPSED SYSTEM TIME (SEC)    =   0.0000    
       ELAPSED TOTAL CPU TIME (SEC) =   0.0000    
       ELAPSED WALLCLOCK TIME (SEC) =          0

               CONVERGENCE CHECKS FOR EQUILIBRIUM ITERATION     2


 AVERAGE FORCE                      0.286       TIME AVG. FORCE       6.689E-02
 LARGEST RESIDUAL FORCE             3.646E-08   AT NODE         20   DOF  2
   INSTANCE: TEST-SAMPLE-1                                                                   
 LARGEST INCREMENT OF DISP.         3.718E-03   AT NODE          1   DOF  1
   INSTANCE: TEST-SAMPLE-1                                                                   
 LARGEST CORRECTION TO DISP.        1.222E-05   AT NODE          6   DOF  3
   INSTANCE: TEST-SAMPLE-1                                                                   
          THE FORCE     EQUILIBRIUM EQUATIONS HAVE CONVERGED
          TIME INCREMENT MAY NOW INCREASE TO     6.00    
          TIME INCREMENT REDUCED TO   0.102     TO MEET NEXT OUTPUT TIME POINT

 ITERATION SUMMARY FOR THE INCREMENT:   2 TOTAL ITERATIONS, OF WHICH
   0 ARE SEVERE DISCONTINUITY ITERATIONS AND  2 ARE EQUILIBRIUM ITERATIONS.

 TIME INCREMENT COMPLETED  0.102    ,  FRACTION OF STEP COMPLETED  0.203    
 STEP TIME COMPLETED        1.22    ,  TOTAL TIME COMPLETED         1.22    


  INCREMENT    13 STARTS. ATTEMPT NUMBER  1, TIME INCREMENT  0.102    

  NUMBER OF EQUATIONS =       60     NUMBER OF FLOATING PT. OPERATIONS =  7.38E+04

     CHECK POINT   START OF SOLVER    

     CHECK POINT  END OF SOLVER       

       ELAPSED USER TIME (SEC)      =   0.0000    
       ELAPSED SYSTEM TIME (SEC)    =   0.0000    
       ELAPSED TOTAL CPU TIME (SEC) =   0.0000    
       ELAPSED WALLCLOCK TIME (SEC) =          0

               CONVERGENCE CHECKS FOR EQUILIBRIUM ITERATION     1


 AVERAGE FORCE                      0.163       TIME AVG. FORCE       7.431E-02
 LARGEST RESIDUAL FORCE            -2.376E-06   AT NODE         18   DOF  2
   INSTANCE: TEST-SAMPLE-1                                                                   
 LARGEST INCREMENT OF DISP.         4.104E-03   AT NODE          1   DOF  1
   INSTANCE: TEST-SAMPLE-1                                                                   
 LARGEST CORRECTION TO DISP.        3.861E-04   AT NODE          1   DOF  1
   INSTANCE: TEST-SAMPLE-1                                                                   
 ESTIMATE OF DISP.    CORRECTION   -3.388E-07
 FORCE     EQUILIB. ACCEPTED BASED ON SMALL RESIDUAL AND ESTIMATED CORRECTION
          TIME INCREMENT MAY NOW INCREASE TO     6.00    
          TIME INCREMENT REDUCED TO   0.102     TO MEET NEXT OUTPUT TIME POINT

 ITERATION SUMMARY FOR THE INCREMENT:   1 TOTAL ITERATIONS, OF WHICH
   0 ARE SEVERE DISCONTINUITY ITERATIONS AND  1 ARE EQUILIBRIUM ITERATIONS.

 TIME INCREMENT COMPLETED  0.102    ,  FRACTION OF STEP COMPLETED  0.220    
 STEP TIME COMPLETED        1.32    ,  TOTAL TIME COMPLETED         1.32    


  INCREMENT    14 STARTS. ATTEMPT NUMBER  1, TIME INCREMENT  0.102    

  NUMBER OF EQUATIONS =       60     NUMBER OF FLOATING PT. OPERATIONS =  7.38E+04

     CHECK POINT   START OF SOLVER    

     CHECK POINT  END OF SOLVER       

       ELAPSED USER TIME (SEC)      =   0.0000    
       ELAPSED SYSTEM TIME (SEC)    =   0.0000    
       ELAPSED TOTAL CPU TIME (SEC) =   0.0000    
       ELAPSED WALLCLOCK TIME (SEC) =          0

               CONVERGENCE CHECKS FOR EQUILIBRIUM ITERATION     1


 AVERAGE FORCE                      0.188       TIME AVG. FORCE       8.243E-02
 LARGEST RESIDUAL FORCE            -3.942E-06   AT NODE         20   DOF  2
   INSTANCE: TEST-SAMPLE-1                                                                   
 LARGEST INCREMENT OF DISP.         4.561E-03   AT NODE          1   DOF  1
   INSTANCE: TEST-SAMPLE-1                                                                   
 LARGEST CORRECTION TO DISP.        4.568E-04   AT NODE          1   DOF  1
   INSTANCE: TEST-SAMPLE-1                                                                   
 ESTIMATE OF DISP.    CORRECTION   -5.371E-07
 FORCE     EQUILIB. ACCEPTED BASED ON SMALL RESIDUAL AND ESTIMATED CORRECTION
          TIME INCREMENT MAY NOW INCREASE TO     6.00    
          TIME INCREMENT REDUCED TO   0.102     TO MEET NEXT OUTPUT TIME POINT

 ITERATION SUMMARY FOR THE INCREMENT:   1 TOTAL ITERATIONS, OF WHICH
   0 ARE SEVERE DISCONTINUITY ITERATIONS AND  1 ARE EQUILIBRIUM ITERATIONS.

 TIME INCREMENT COMPLETED  0.102    ,  FRACTION OF STEP COMPLETED  0.237    
 STEP TIME COMPLETED        1.42    ,  TOTAL TIME COMPLETED         1.42    


  INCREMENT    15 STARTS. ATTEMPT NUMBER  1, TIME INCREMENT  0.102    

  NUMBER OF EQUATIONS =       60     NUMBER OF FLOATING PT. OPERATIONS =  7.38E+04

     CHECK POINT   START OF SOLVER    

     CHECK POINT  END OF SOLVER       

       ELAPSED USER TIME (SEC)      =   0.0000    
       ELAPSED SYSTEM TIME (SEC)    =   0.0000    
       ELAPSED TOTAL CPU TIME (SEC) =   0.0000    
       ELAPSED WALLCLOCK TIME (SEC) =          0

               CONVERGENCE CHECKS FOR EQUILIBRIUM ITERATION     1


 AVERAGE FORCE                      0.140       TIME AVG. FORCE       8.626E-02
 LARGEST RESIDUAL FORCE             1.194E-04   AT NODE         17   DOF  3
   INSTANCE: TEST-SAMPLE-1                                                                   
 LARGEST INCREMENT OF DISP.         3.853E-03   AT NODE          1   DOF  1
   INSTANCE: TEST-SAMPLE-1                                                                   
 LARGEST CORRECTION TO DISP.       -7.080E-04   AT NODE          1   DOF  1
   INSTANCE: TEST-SAMPLE-1                                                                   
 ESTIMATE OF DISP.    CORRECTION   -2.057E-05
 FORCE     EQUILIB. ACCEPTED BASED ON SMALL RESIDUAL AND ESTIMATED CORRECTION
          TIME INCREMENT MAY NOW INCREASE TO     6.00    
          TIME INCREMENT REDUCED TO   0.102     TO MEET NEXT OUTPUT TIME POINT

 ITERATION SUMMARY FOR THE INCREMENT:   1 TOTAL ITERATIONS, OF WHICH
   0 ARE SEVERE DISCONTINUITY ITERATIONS AND  1 ARE EQUILIBRIUM ITERATIONS.

 TIME INCREMENT COMPLETED  0.102    ,  FRACTION OF STEP COMPLETED  0.254    
 STEP TIME COMPLETED        1.53    ,  TOTAL TIME COMPLETED         1.53    


  INCREMENT    16 STARTS. ATTEMPT NUMBER  1, TIME INCREMENT  0.102    

  NUMBER OF EQUATIONS =       60     NUMBER OF FLOATING PT. OPERATIONS =  7.38E+04

     CHECK POINT   START OF SOLVER    

     CHECK POINT  END OF SOLVER       

       ELAPSED USER TIME (SEC)      =   0.0000    
       ELAPSED SYSTEM TIME (SEC)    =   0.0000    
       ELAPSED TOTAL CPU TIME (SEC) =   0.0000    
       ELAPSED WALLCLOCK TIME (SEC) =          0

               CONVERGENCE CHECKS FOR EQUILIBRIUM ITERATION     1


 AVERAGE FORCE                      0.159       TIME AVG. FORCE       9.082E-02
 LARGEST RESIDUAL FORCE             2.472E-05   AT NODE         17   DOF  3
   INSTANCE: TEST-SAMPLE-1                                                                   
 LARGEST INCREMENT OF DISP.         4.810E-03   AT NODE          1   DOF  1
   INSTANCE: TEST-SAMPLE-1                                                                   
 LARGEST CORRECTION TO DISP.        9.577E-04   AT NODE          1   DOF  1
   INSTANCE: TEST-SAMPLE-1                                                                   
 ESTIMATE OF DISP.    CORRECTION    7.672E-06
 FORCE     EQUILIB. ACCEPTED BASED ON SMALL RESIDUAL AND ESTIMATED CORRECTION
          TIME INCREMENT MAY NOW INCREASE TO     6.00    
          TIME INCREMENT REDUCED TO   0.102     TO MEET NEXT OUTPUT TIME POINT

 ITERATION SUMMARY FOR THE INCREMENT:   1 TOTAL ITERATIONS, OF WHICH
   0 ARE SEVERE DISCONTINUITY ITERATIONS AND  1 ARE EQUILIBRIUM ITERATIONS.

 TIME INCREMENT COMPLETED  0.102    ,  FRACTION OF STEP COMPLETED  0.271    
 STEP TIME COMPLETED        1.63    ,  TOTAL TIME COMPLETED         1.63    


  INCREMENT    17 STARTS. ATTEMPT NUMBER  1, TIME INCREMENT  0.102    

  NUMBER OF EQUATIONS =       60     NUMBER OF FLOATING PT. OPERATIONS =  7.38E+04

     CHECK POINT   START OF SOLVER    

     CHECK POINT  END OF SOLVER       

       ELAPSED USER TIME (SEC)      =   0.0000    
       ELAPSED SYSTEM TIME (SEC)    =   0.0000    
       ELAPSED TOTAL CPU TIME (SEC) =   0.0000    
       ELAPSED WALLCLOCK TIME (SEC) =          0

               CONVERGENCE CHECKS FOR EQUILIBRIUM ITERATION     1


 AVERAGE FORCE                      0.175       TIME AVG. FORCE       9.577E-02
 LARGEST RESIDUAL FORCE             2.177E-04   AT NODE          9   DOF  2
   INSTANCE: TEST-SAMPLE-1                                                                   
 LARGEST INCREMENT OF DISP.         3.651E-03   AT NODE          1   DOF  1
   INSTANCE: TEST-SAMPLE-1                                                                   
 LARGEST CORRECTION TO DISP.       -1.160E-03   AT NODE          1   DOF  1
   INSTANCE: TEST-SAMPLE-1                                                                   
          DISP.    CORRECTION TOO LARGE COMPARED TO DISP.    INCREMENT

  NUMBER OF EQUATIONS =       60     NUMBER OF FLOATING PT. OPERATIONS =  7.38E+04

     CHECK POINT   START OF SOLVER    

     CHECK POINT  END OF SOLVER       

       ELAPSED USER TIME (SEC)      =   0.0000    
       ELAPSED SYSTEM TIME (SEC)    =   0.0000    
       ELAPSED TOTAL CPU TIME (SEC) =   0.0000    
       ELAPSED WALLCLOCK TIME (SEC) =          0

               CONVERGENCE CHECKS FOR EQUILIBRIUM ITERATION     2


 AVERAGE FORCE                      0.524       TIME AVG. FORCE       0.116    
 LARGEST RESIDUAL FORCE             4.098E-08   AT NODE         17   DOF  3
   INSTANCE: TEST-SAMPLE-1                                                                   
 LARGEST INCREMENT OF DISP.         3.651E-03   AT NODE          1   DOF  1
   INSTANCE: TEST-SAMPLE-1                                                                   
 LARGEST CORRECTION TO DISP.        8.856E-06   AT NODE          5   DOF  3
   INSTANCE: TEST-SAMPLE-1                                                                   
          THE FORCE     EQUILIBRIUM EQUATIONS HAVE CONVERGED
          TIME INCREMENT MAY NOW INCREASE TO     6.00    
          TIME INCREMENT REDUCED TO   0.102     TO MEET NEXT OUTPUT TIME POINT

 ITERATION SUMMARY FOR THE INCREMENT:   2 TOTAL ITERATIONS, OF WHICH
   0 ARE SEVERE DISCONTINUITY ITERATIONS AND  2 ARE EQUILIBRIUM ITERATIONS.

 TIME INCREMENT COMPLETED  0.102    ,  FRACTION OF STEP COMPLETED  0.288    
 STEP TIME COMPLETED        1.73    ,  TOTAL TIME COMPLETED         1.73    


  INCREMENT    18 STARTS. ATTEMPT NUMBER  1, TIME INCREMENT  0.102    

  NUMBER OF EQUATIONS =       60     NUMBER OF FLOATING PT. OPERATIONS =  7.38E+04

     CHECK POINT   START OF SOLVER    

     CHECK POINT  END OF SOLVER       

       ELAPSED USER TIME (SEC)      =   0.0000    
       ELAPSED SYSTEM TIME (SEC)    =   0.0000    
       ELAPSED TOTAL CPU TIME (SEC) =   0.0000    
       ELAPSED WALLCLOCK TIME (SEC) =          0

               CONVERGENCE CHECKS FOR EQUILIBRIUM ITERATION     1


 AVERAGE FORCE                      0.187       TIME AVG. FORCE       0.120    
 LARGEST RESIDUAL FORCE             9.666E-05   AT NODE         18   DOF  3
   INSTANCE: TEST-SAMPLE-1                                                                   
 LARGEST INCREMENT OF DISP.         2.813E-03   AT NODE          1   DOF  1
   INSTANCE: TEST-SAMPLE-1                                                                   
 LARGEST CORRECTION TO DISP.       -8.375E-04   AT NODE          1   DOF  1
   INSTANCE: TEST-SAMPLE-1                                                                   
          DISP.    CORRECTION TOO LARGE COMPARED TO DISP.    INCREMENT

  NUMBER OF EQUATIONS =       60     NUMBER OF FLOATING PT. OPERATIONS =  7.38E+04

     CHECK POINT   START OF SOLVER    

     CHECK POINT  END OF SOLVER       

       ELAPSED USER TIME (SEC)      =   0.0000    
       ELAPSED SYSTEM TIME (SEC)    =   0.0000    
       ELAPSED TOTAL CPU TIME (SEC) =   0.0000    
       ELAPSED WALLCLOCK TIME (SEC) =          0

               CONVERGENCE CHECKS FOR EQUILIBRIUM ITERATION     2


 AVERAGE FORCE                      0.561       TIME AVG. FORCE       0.141    
 LARGEST RESIDUAL FORCE             7.828E-09   AT NODE         17   DOF  3
   INSTANCE: TEST-SAMPLE-1                                                                   
 LARGEST INCREMENT OF DISP.         2.813E-03   AT NODE          1   DOF  1
   INSTANCE: TEST-SAMPLE-1                                                                   
 LARGEST CORRECTION TO DISP.        3.718E-06   AT NODE          1   DOF  3
   INSTANCE: TEST-SAMPLE-1                                                                   
          THE FORCE     EQUILIBRIUM EQUATIONS HAVE CONVERGED
          TIME INCREMENT MAY NOW INCREASE TO     6.00    
          TIME INCREMENT REDUCED TO   0.102     TO MEET NEXT OUTPUT TIME POINT

 ITERATION SUMMARY FOR THE INCREMENT:   2 TOTAL ITERATIONS, OF WHICH
   0 ARE SEVERE DISCONTINUITY ITERATIONS AND  2 ARE EQUILIBRIUM ITERATIONS.

 TIME INCREMENT COMPLETED  0.102    ,  FRACTION OF STEP COMPLETED  0.305    
 STEP TIME COMPLETED        1.83    ,  TOTAL TIME COMPLETED         1.83    


  INCREMENT    19 STARTS. ATTEMPT NUMBER  1, TIME INCREMENT  0.102    

  NUMBER OF EQUATIONS =       60     NUMBER OF FLOATING PT. OPERATIONS =  7.38E+04

     CHECK POINT   START OF SOLVER    

     CHECK POINT  END OF SOLVER       

       ELAPSED USER TIME (SEC)      =   0.0000    
       ELAPSED SYSTEM TIME (SEC)    =   0.0000    
       ELAPSED TOTAL CPU TIME (SEC) =   0.0000    
       ELAPSED WALLCLOCK TIME (SEC) =          0

               CONVERGENCE CHECKS FOR EQUILIBRIUM ITERATION     1


 AVERAGE FORCE                      0.203       TIME AVG. FORCE       0.144    
 LARGEST RESIDUAL FORCE             2.459E-05   AT NODE         18   DOF  2
   INSTANCE: TEST-SAMPLE-1                                                                   
 LARGEST INCREMENT OF DISP.         3.550E-03   AT NODE          1   DOF  1
   INSTANCE: TEST-SAMPLE-1                                                                   
 LARGEST CORRECTION TO DISP.        7.373E-04   AT NODE          1   DOF  1
   INSTANCE: TEST-SAMPLE-1                                                                   
 ESTIMATE OF DISP.    CORRECTION    1.361E-05
 FORCE     EQUILIB. ACCEPTED BASED ON SMALL RESIDUAL AND ESTIMATED CORRECTION
          TIME INCREMENT MAY NOW INCREASE TO     6.00    
          TIME INCREMENT REDUCED TO   0.102     TO MEET NEXT OUTPUT TIME POINT

 ITERATION SUMMARY FOR THE INCREMENT:   1 TOTAL ITERATIONS, OF WHICH
   0 ARE SEVERE DISCONTINUITY ITERATIONS AND  1 ARE EQUILIBRIUM ITERATIONS.

 TIME INCREMENT COMPLETED  0.102    ,  FRACTION OF STEP COMPLETED  0.322    
 STEP TIME COMPLETED        1.93    ,  TOTAL TIME COMPLETED         1.93    


  INCREMENT    20 STARTS. ATTEMPT NUMBER  1, TIME INCREMENT  0.102    

  NUMBER OF EQUATIONS =       60     NUMBER OF FLOATING PT. OPERATIONS =  7.38E+04

     CHECK POINT   START OF SOLVER    

     CHECK POINT  END OF SOLVER       

       ELAPSED USER TIME (SEC)      =   0.0000    
       ELAPSED SYSTEM TIME (SEC)    =   0.0000    
       ELAPSED TOTAL CPU TIME (SEC) =   0.0000    
       ELAPSED WALLCLOCK TIME (SEC) =          0

               CONVERGENCE CHECKS FOR EQUILIBRIUM ITERATION     1


 AVERAGE FORCE                      0.232       TIME AVG. FORCE       0.149    
 LARGEST RESIDUAL FORCE             3.431E-04   AT NODE         20   DOF  2
   INSTANCE: TEST-SAMPLE-1                                                                   
 LARGEST INCREMENT OF DISP.         5.959E-03   AT NODE          1   DOF  1
   INSTANCE: TEST-SAMPLE-1                                                                   
 LARGEST CORRECTION TO DISP.        2.408E-03   AT NODE          1   DOF  1
   INSTANCE: TEST-SAMPLE-1                                                                   
          DISP.    CORRECTION TOO LARGE COMPARED TO DISP.    INCREMENT

  NUMBER OF EQUATIONS =       60     NUMBER OF FLOATING PT. OPERATIONS =  7.38E+04

     CHECK POINT   START OF SOLVER    

     CHECK POINT  END OF SOLVER       

       ELAPSED USER TIME (SEC)      =   0.0000    
       ELAPSED SYSTEM TIME (SEC)    =   0.0000    
       ELAPSED TOTAL CPU TIME (SEC) =   0.0000    
       ELAPSED WALLCLOCK TIME (SEC) =          0

               CONVERGENCE CHECKS FOR EQUILIBRIUM ITERATION     2


 AVERAGE FORCE                      0.695       TIME AVG. FORCE       0.172    
 LARGEST RESIDUAL FORCE             8.779E-08   AT NODE         18   DOF  2
   INSTANCE: TEST-SAMPLE-1                                                                   
 LARGEST INCREMENT OF DISP.         5.959E-03   AT NODE          1   DOF  1
   INSTANCE: TEST-SAMPLE-1                                                                   
 LARGEST CORRECTION TO DISP.        1.101E-05   AT NODE          1   DOF  3
   INSTANCE: TEST-SAMPLE-1                                                                   
          THE FORCE     EQUILIBRIUM EQUATIONS HAVE CONVERGED
          TIME INCREMENT MAY NOW INCREASE TO     6.00    
          TIME INCREMENT REDUCED TO   0.102     TO MEET NEXT OUTPUT TIME POINT

 ITERATION SUMMARY FOR THE INCREMENT:   2 TOTAL ITERATIONS, OF WHICH
   0 ARE SEVERE DISCONTINUITY ITERATIONS AND  2 ARE EQUILIBRIUM ITERATIONS.

 TIME INCREMENT COMPLETED  0.102    ,  FRACTION OF STEP COMPLETED  0.339    
 STEP TIME COMPLETED        2.03    ,  TOTAL TIME COMPLETED         2.03    


  INCREMENT    21 STARTS. ATTEMPT NUMBER  1, TIME INCREMENT  0.102    

  NUMBER OF EQUATIONS =       60     NUMBER OF FLOATING PT. OPERATIONS =  7.38E+04

     CHECK POINT   START OF SOLVER    

     CHECK POINT  END OF SOLVER       

       ELAPSED USER TIME (SEC)      =   0.0000    
       ELAPSED SYSTEM TIME (SEC)    =   0.0000    
       ELAPSED TOTAL CPU TIME (SEC) =   0.0000    
       ELAPSED WALLCLOCK TIME (SEC) =          0

               CONVERGENCE CHECKS FOR EQUILIBRIUM ITERATION     1


 AVERAGE FORCE                      0.242       TIME AVG. FORCE       0.175    
 LARGEST RESIDUAL FORCE             1.458E-03   AT NODE         16   DOF  2
   INSTANCE: TEST-SAMPLE-1                                                                   
 LARGEST INCREMENT OF DISP.         1.932E-03   AT NODE          1   DOF  1
   INSTANCE: TEST-SAMPLE-1                                                                   
 LARGEST CORRECTION TO DISP.       -4.026E-03   AT NODE          1   DOF  1
   INSTANCE: TEST-SAMPLE-1                                                                   
          FORCE     EQUILIBRIUM NOT ACHIEVED WITHIN TOLERANCE.

  NUMBER OF EQUATIONS =       60     NUMBER OF FLOATING PT. OPERATIONS =  7.38E+04

     CHECK POINT   START OF SOLVER    

     CHECK POINT  END OF SOLVER       

       ELAPSED USER TIME (SEC)      =   0.0000    
       ELAPSED SYSTEM TIME (SEC)    =  1.00000E-02
       ELAPSED TOTAL CPU TIME (SEC) =  1.00000E-02
       ELAPSED WALLCLOCK TIME (SEC) =          0

               CONVERGENCE CHECKS FOR EQUILIBRIUM ITERATION     2


 AVERAGE FORCE                      0.723       TIME AVG. FORCE       0.198    
 LARGEST RESIDUAL FORCE             1.544E-06   AT NODE         17   DOF  3
   INSTANCE: TEST-SAMPLE-1                                                                   
 LARGEST INCREMENT OF DISP.         1.932E-03   AT NODE          1   DOF  1
   INSTANCE: TEST-SAMPLE-1                                                                   
 LARGEST CORRECTION TO DISP.        4.508E-05   AT NODE          7   DOF  2
   INSTANCE: TEST-SAMPLE-1                                                                   
 ESTIMATE OF DISP.    CORRECTION    4.775E-08
 FORCE     EQUILIB. ACCEPTED BASED ON SMALL RESIDUAL AND ESTIMATED CORRECTION
          TIME INCREMENT MAY NOW INCREASE TO     6.00    
          TIME INCREMENT REDUCED TO   0.102     TO MEET NEXT OUTPUT TIME POINT

 ITERATION SUMMARY FOR THE INCREMENT:   2 TOTAL ITERATIONS, OF WHICH
   0 ARE SEVERE DISCONTINUITY ITERATIONS AND  2 ARE EQUILIBRIUM ITERATIONS.

 TIME INCREMENT COMPLETED  0.102    ,  FRACTION OF STEP COMPLETED  0.356    
 STEP TIME COMPLETED        2.14    ,  TOTAL TIME COMPLETED         2.14    


  INCREMENT    22 STARTS. ATTEMPT NUMBER  1, TIME INCREMENT  0.102    

  NUMBER OF EQUATIONS =       60     NUMBER OF FLOATING PT. OPERATIONS =  7.38E+04

     CHECK POINT   START OF SOLVER    

     CHECK POINT  END OF SOLVER       

       ELAPSED USER TIME (SEC)      =   0.0000    
       ELAPSED SYSTEM TIME (SEC)    =   0.0000    
       ELAPSED TOTAL CPU TIME (SEC) =   0.0000    
       ELAPSED WALLCLOCK TIME (SEC) =          0

               CONVERGENCE CHECKS FOR EQUILIBRIUM ITERATION     1


 AVERAGE FORCE                      0.270       TIME AVG. FORCE       0.201    
 LARGEST RESIDUAL FORCE             8.519E-04   AT NODE         18   DOF  2
   INSTANCE: TEST-SAMPLE-1                                                                   
 LARGEST INCREMENT OF DISP.         5.458E-03   AT NODE          1   DOF  1
   INSTANCE: TEST-SAMPLE-1                                                                   
 LARGEST CORRECTION TO DISP.        3.526E-03   AT NODE          1   DOF  1
   INSTANCE: TEST-SAMPLE-1                                                                   
          DISP.    CORRECTION TOO LARGE COMPARED TO DISP.    INCREMENT

  NUMBER OF EQUATIONS =       60     NUMBER OF FLOATING PT. OPERATIONS =  7.38E+04

     CHECK POINT   START OF SOLVER    

     CHECK POINT  END OF SOLVER       

       ELAPSED USER TIME (SEC)      =   0.0000    
       ELAPSED SYSTEM TIME (SEC)    =   0.0000    
       ELAPSED TOTAL CPU TIME (SEC) =   0.0000    
       ELAPSED WALLCLOCK TIME (SEC) =          0

               CONVERGENCE CHECKS FOR EQUILIBRIUM ITERATION     2


 AVERAGE FORCE                      0.807       TIME AVG. FORCE       0.226    
 LARGEST RESIDUAL FORCE             4.922E-07   AT NODE          9   DOF  2
   INSTANCE: TEST-SAMPLE-1                                                                   
 LARGEST INCREMENT OF DISP.         5.458E-03   AT NODE          1   DOF  1
   INSTANCE: TEST-SAMPLE-1                                                                   
 LARGEST CORRECTION TO DISP.        2.396E-05   AT NODE          6   DOF  3
   INSTANCE: TEST-SAMPLE-1                                                                   
          THE FORCE     EQUILIBRIUM EQUATIONS HAVE CONVERGED
          TIME INCREMENT MAY NOW INCREASE TO     6.00    
          TIME INCREMENT REDUCED TO   0.102     TO MEET NEXT OUTPUT TIME POINT

 ITERATION SUMMARY FOR THE INCREMENT:   2 TOTAL ITERATIONS, OF WHICH
   0 ARE SEVERE DISCONTINUITY ITERATIONS AND  2 ARE EQUILIBRIUM ITERATIONS.

 TIME INCREMENT COMPLETED  0.102    ,  FRACTION OF STEP COMPLETED  0.373    
 STEP TIME COMPLETED        2.24    ,  TOTAL TIME COMPLETED         2.24    


  INCREMENT    23 STARTS. ATTEMPT NUMBER  1, TIME INCREMENT  0.102    

  NUMBER OF EQUATIONS =       60     NUMBER OF FLOATING PT. OPERATIONS =  7.38E+04

     CHECK POINT   START OF SOLVER    

     CHECK POINT  END OF SOLVER       

       ELAPSED USER TIME (SEC)      =   0.0000    
       ELAPSED SYSTEM TIME (SEC)    =   0.0000    
       ELAPSED TOTAL CPU TIME (SEC) =   0.0000    
       ELAPSED WALLCLOCK TIME (SEC) =          0

               CONVERGENCE CHECKS FOR EQUILIBRIUM ITERATION     1


 AVERAGE FORCE                      0.291       TIME AVG. FORCE       0.229    
 LARGEST RESIDUAL FORCE             2.308E-04   AT NODE         20   DOF  2
   INSTANCE: TEST-SAMPLE-1                                                                   
 LARGEST INCREMENT OF DISP.         4.065E-03   AT NODE          1   DOF  1
   INSTANCE: TEST-SAMPLE-1                                                                   
 LARGEST CORRECTION TO DISP.       -1.393E-03   AT NODE          1   DOF  1
   INSTANCE: TEST-SAMPLE-1                                                                   
          DISP.    CORRECTION TOO LARGE COMPARED TO DISP.    INCREMENT

  NUMBER OF EQUATIONS =       60     NUMBER OF FLOATING PT. OPERATIONS =  7.38E+04

     CHECK POINT   START OF SOLVER    

     CHECK POINT  END OF SOLVER       

       ELAPSED USER TIME (SEC)      =   0.0000    
       ELAPSED SYSTEM TIME (SEC)    =   0.0000    
       ELAPSED TOTAL CPU TIME (SEC) =   0.0000    
       ELAPSED WALLCLOCK TIME (SEC) =          0

               CONVERGENCE CHECKS FOR EQUILIBRIUM ITERATION     2


 AVERAGE FORCE                      0.872       TIME AVG. FORCE       0.254    
 LARGEST RESIDUAL FORCE             3.431E-08   AT NODE         18   DOF  2
   INSTANCE: TEST-SAMPLE-1                                                                   
 LARGEST INCREMENT OF DISP.         4.065E-03   AT NODE          1   DOF  1
   INSTANCE: TEST-SAMPLE-1                                                                   
 LARGEST CORRECTION TO DISP.        6.064E-06   AT NODE          2   DOF  3
   INSTANCE: TEST-SAMPLE-1                                                                   
          THE FORCE     EQUILIBRIUM EQUATIONS HAVE CONVERGED
          TIME INCREMENT MAY NOW INCREASE TO     6.00    
          TIME INCREMENT REDUCED TO   0.102     TO MEET NEXT OUTPUT TIME POINT

 ITERATION SUMMARY FOR THE INCREMENT:   2 TOTAL ITERATIONS, OF WHICH
   0 ARE SEVERE DISCONTINUITY ITERATIONS AND  2 ARE EQUILIBRIUM ITERATIONS.

 TIME INCREMENT COMPLETED  0.102    ,  FRACTION OF STEP COMPLETED  0.390    
 STEP TIME COMPLETED        2.34    ,  TOTAL TIME COMPLETED         2.34    


  INCREMENT    24 STARTS. ATTEMPT NUMBER  1, TIME INCREMENT  0.102    

  NUMBER OF EQUATIONS =       60     NUMBER OF FLOATING PT. OPERATIONS =  7.38E+04

     CHECK POINT   START OF SOLVER    

     CHECK POINT  END OF SOLVER       

       ELAPSED USER TIME (SEC)      =   0.0000    
       ELAPSED SYSTEM TIME (SEC)    =   0.0000    
       ELAPSED TOTAL CPU TIME (SEC) =   0.0000    
       ELAPSED WALLCLOCK TIME (SEC) =          0

               CONVERGENCE CHECKS FOR EQUILIBRIUM ITERATION     1


 AVERAGE FORCE                      0.477       TIME AVG. FORCE       0.263    
 LARGEST RESIDUAL FORCE             1.707E-05   AT NODE         17   DOF  3
   INSTANCE: TEST-SAMPLE-1                                                                   
 LARGEST INCREMENT OF DISP.         4.927E-03   AT NODE          1   DOF  1
   INSTANCE: TEST-SAMPLE-1                                                                   
 LARGEST CORRECTION TO DISP.        8.621E-04   AT NODE          1   DOF  1
   INSTANCE: TEST-SAMPLE-1                                                                   
 ESTIMATE OF DISP.    CORRECTION    6.501E-06
 FORCE     EQUILIB. ACCEPTED BASED ON SMALL RESIDUAL AND ESTIMATED CORRECTION
          TIME INCREMENT MAY NOW INCREASE TO     6.00    
          TIME INCREMENT REDUCED TO   0.102     TO MEET NEXT OUTPUT TIME POINT

 ITERATION SUMMARY FOR THE INCREMENT:   1 TOTAL ITERATIONS, OF WHICH
   0 ARE SEVERE DISCONTINUITY ITERATIONS AND  1 ARE EQUILIBRIUM ITERATIONS.

 TIME INCREMENT COMPLETED  0.102    ,  FRACTION OF STEP COMPLETED  0.407    
 STEP TIME COMPLETED        2.44    ,  TOTAL TIME COMPLETED         2.44    


  INCREMENT    25 STARTS. ATTEMPT NUMBER  1, TIME INCREMENT  0.102    

  NUMBER OF EQUATIONS =       60     NUMBER OF FLOATING PT. OPERATIONS =  7.38E+04

     CHECK POINT   START OF SOLVER    

     CHECK POINT  END OF SOLVER       

       ELAPSED USER TIME (SEC)      =   0.0000    
       ELAPSED SYSTEM TIME (SEC)    =   0.0000    
       ELAPSED TOTAL CPU TIME (SEC) =   0.0000    
       ELAPSED WALLCLOCK TIME (SEC) =          0

               CONVERGENCE CHECKS FOR EQUILIBRIUM ITERATION     1


 AVERAGE FORCE                      0.343       TIME AVG. FORCE       0.266    
 LARGEST RESIDUAL FORCE             4.638E-05   AT NODE          9   DOF  2
   INSTANCE: TEST-SAMPLE-1                                                                   
 LARGEST INCREMENT OF DISP.         4.412E-03   AT NODE          1   DOF  1
   INSTANCE: TEST-SAMPLE-1                                                                   
 LARGEST CORRECTION TO DISP.       -5.150E-04   AT NODE          1   DOF  1
   INSTANCE: TEST-SAMPLE-1                                                                   
 ESTIMATE OF DISP.    CORRECTION   -7.402E-06
 FORCE     EQUILIB. ACCEPTED BASED ON SMALL RESIDUAL AND ESTIMATED CORRECTION
          TIME INCREMENT MAY NOW INCREASE TO     6.00    
          TIME INCREMENT REDUCED TO   0.102     TO MEET NEXT OUTPUT TIME POINT

 ITERATION SUMMARY FOR THE INCREMENT:   1 TOTAL ITERATIONS, OF WHICH
   0 ARE SEVERE DISCONTINUITY ITERATIONS AND  1 ARE EQUILIBRIUM ITERATIONS.

 TIME INCREMENT COMPLETED  0.102    ,  FRACTION OF STEP COMPLETED  0.424    
 STEP TIME COMPLETED        2.54    ,  TOTAL TIME COMPLETED         2.54    


  INCREMENT    26 STARTS. ATTEMPT NUMBER  1, TIME INCREMENT  0.102    

  NUMBER OF EQUATIONS =       60     NUMBER OF FLOATING PT. OPERATIONS =  7.38E+04

     CHECK POINT   START OF SOLVER    

     CHECK POINT  END OF SOLVER       

       ELAPSED USER TIME (SEC)      =   0.0000    
       ELAPSED SYSTEM TIME (SEC)    =   0.0000    
       ELAPSED TOTAL CPU TIME (SEC) =   0.0000    
       ELAPSED WALLCLOCK TIME (SEC) =          0

               CONVERGENCE CHECKS FOR EQUILIBRIUM ITERATION     1


 AVERAGE FORCE                      0.354       TIME AVG. FORCE       0.270    
 LARGEST RESIDUAL FORCE             4.686E-04   AT NODE         13   DOF  3
   INSTANCE: TEST-SAMPLE-1                                                                   
 LARGEST INCREMENT OF DISP.         1.792E-03   AT NODE          1   DOF  1
   INSTANCE: TEST-SAMPLE-1                                                                   
 LARGEST CORRECTION TO DISP.       -2.620E-03   AT NODE          1   DOF  1
   INSTANCE: TEST-SAMPLE-1                                                                   
          DISP.    CORRECTION TOO LARGE COMPARED TO DISP.    INCREMENT

  NUMBER OF EQUATIONS =       60     NUMBER OF FLOATING PT. OPERATIONS =  7.38E+04

     CHECK POINT   START OF SOLVER    

     CHECK POINT  END OF SOLVER       

       ELAPSED USER TIME (SEC)      =   0.0000    
       ELAPSED SYSTEM TIME (SEC)    =   0.0000    
       ELAPSED TOTAL CPU TIME (SEC) =   0.0000    
       ELAPSED WALLCLOCK TIME (SEC) =          0

               CONVERGENCE CHECKS FOR EQUILIBRIUM ITERATION     2


 AVERAGE FORCE                       1.06       TIME AVG. FORCE       0.297    
 LARGEST RESIDUAL FORCE             1.226E-07   AT NODE         18   DOF  2
   INSTANCE: TEST-SAMPLE-1                                                                   
 LARGEST INCREMENT OF DISP.         1.792E-03   AT NODE          1   DOF  1
   INSTANCE: TEST-SAMPLE-1                                                                   
 LARGEST CORRECTION TO DISP.        1.031E-05   AT NODE          3   DOF  2
   INSTANCE: TEST-SAMPLE-1                                                                   
          THE FORCE     EQUILIBRIUM EQUATIONS HAVE CONVERGED
          TIME INCREMENT MAY NOW INCREASE TO     6.00    
          TIME INCREMENT REDUCED TO   0.102     TO MEET NEXT OUTPUT TIME POINT

 ITERATION SUMMARY FOR THE INCREMENT:   2 TOTAL ITERATIONS, OF WHICH
   0 ARE SEVERE DISCONTINUITY ITERATIONS AND  2 ARE EQUILIBRIUM ITERATIONS.

 TIME INCREMENT COMPLETED  0.102    ,  FRACTION OF STEP COMPLETED  0.441    
 STEP TIME COMPLETED        2.64    ,  TOTAL TIME COMPLETED         2.64    


  INCREMENT    27 STARTS. ATTEMPT NUMBER  1, TIME INCREMENT  0.102    

  NUMBER OF EQUATIONS =       60     NUMBER OF FLOATING PT. OPERATIONS =  7.38E+04

     CHECK POINT   START OF SOLVER    

     CHECK POINT  END OF SOLVER       

       ELAPSED USER TIME (SEC)      =   0.0000    
       ELAPSED SYSTEM TIME (SEC)    =   0.0000    
       ELAPSED TOTAL CPU TIME (SEC) =   0.0000    
       ELAPSED WALLCLOCK TIME (SEC) =          0

               CONVERGENCE CHECKS FOR EQUILIBRIUM ITERATION     1


 AVERAGE FORCE                      0.369       TIME AVG. FORCE       0.300    
 LARGEST RESIDUAL FORCE             2.935E-05   AT NODE         20   DOF  2
   INSTANCE: TEST-SAMPLE-1                                                                   
 LARGEST INCREMENT OF DISP.         2.562E-03   AT NODE          1   DOF  1
   INSTANCE: TEST-SAMPLE-1                                                                   
 LARGEST CORRECTION TO DISP.        7.703E-04   AT NODE          1   DOF  1
   INSTANCE: TEST-SAMPLE-1                                                                   
          DISP.    CORRECTION TOO LARGE COMPARED TO DISP.    INCREMENT

  NUMBER OF EQUATIONS =       60     NUMBER OF FLOATING PT. OPERATIONS =  7.38E+04

     CHECK POINT   START OF SOLVER    

     CHECK POINT  END OF SOLVER       

       ELAPSED USER TIME (SEC)      =   0.0000    
       ELAPSED SYSTEM TIME (SEC)    =   0.0000    
       ELAPSED TOTAL CPU TIME (SEC) =   0.0000    
       ELAPSED WALLCLOCK TIME (SEC) =          0

               CONVERGENCE CHECKS FOR EQUILIBRIUM ITERATION     2


 AVERAGE FORCE                       1.11       TIME AVG. FORCE       0.327    
 LARGEST RESIDUAL FORCE             4.655E-10   AT NODE         18   DOF  3
   INSTANCE: TEST-SAMPLE-1                                                                   
 LARGEST INCREMENT OF DISP.         2.562E-03   AT NODE          1   DOF  1
   INSTANCE: TEST-SAMPLE-1                                                                   
 LARGEST CORRECTION TO DISP.        6.213E-07   AT NODE          5   DOF  3
   INSTANCE: TEST-SAMPLE-1                                                                   
          THE FORCE     EQUILIBRIUM EQUATIONS HAVE CONVERGED
          TIME INCREMENT MAY NOW INCREASE TO     6.00    
          TIME INCREMENT REDUCED TO   0.102     TO MEET NEXT OUTPUT TIME POINT

 ITERATION SUMMARY FOR THE INCREMENT:   2 TOTAL ITERATIONS, OF WHICH
   0 ARE SEVERE DISCONTINUITY ITERATIONS AND  2 ARE EQUILIBRIUM ITERATIONS.

 TIME INCREMENT COMPLETED  0.102    ,  FRACTION OF STEP COMPLETED  0.458    
 STEP TIME COMPLETED        2.75    ,  TOTAL TIME COMPLETED         2.75    


  INCREMENT    28 STARTS. ATTEMPT NUMBER  1, TIME INCREMENT  0.102    

  NUMBER OF EQUATIONS =       60     NUMBER OF FLOATING PT. OPERATIONS =  7.38E+04

     CHECK POINT   START OF SOLVER    

     CHECK POINT  END OF SOLVER       

       ELAPSED USER TIME (SEC)      =   0.0000    
       ELAPSED SYSTEM TIME (SEC)    =  1.00000E-02
       ELAPSED TOTAL CPU TIME (SEC) =  1.00000E-02
       ELAPSED WALLCLOCK TIME (SEC) =          0

               CONVERGENCE CHECKS FOR EQUILIBRIUM ITERATION     1


 AVERAGE FORCE                      0.414       TIME AVG. FORCE       0.330    
 LARGEST RESIDUAL FORCE             1.100E-03   AT NODE         20   DOF  2
   INSTANCE: TEST-SAMPLE-1                                                                   
 LARGEST INCREMENT OF DISP.         7.140E-03   AT NODE          1   DOF  1
   INSTANCE: TEST-SAMPLE-1                                                                   
 LARGEST CORRECTION TO DISP.        4.578E-03   AT NODE          1   DOF  1
   INSTANCE: TEST-SAMPLE-1                                                                   
          DISP.    CORRECTION TOO LARGE COMPARED TO DISP.    INCREMENT

  NUMBER OF EQUATIONS =       60     NUMBER OF FLOATING PT. OPERATIONS =  7.38E+04

     CHECK POINT   START OF SOLVER    

     CHECK POINT  END OF SOLVER       

       ELAPSED USER TIME (SEC)      =   0.0000    
       ELAPSED SYSTEM TIME (SEC)    =   0.0000    
       ELAPSED TOTAL CPU TIME (SEC) =   0.0000    
       ELAPSED WALLCLOCK TIME (SEC) =          0

               CONVERGENCE CHECKS FOR EQUILIBRIUM ITERATION     2


 AVERAGE FORCE                       1.24       TIME AVG. FORCE       0.360    
 LARGEST RESIDUAL FORCE             5.972E-07   AT NODE         12   DOF  3
   INSTANCE: TEST-SAMPLE-1                                                                   
 LARGEST INCREMENT OF DISP.         7.140E-03   AT NODE          1   DOF  1
   INSTANCE: TEST-SAMPLE-1                                                                   
 LARGEST CORRECTION TO DISP.        2.096E-05   AT NODE          5   DOF  3
   INSTANCE: TEST-SAMPLE-1                                                                   
          THE FORCE     EQUILIBRIUM EQUATIONS HAVE CONVERGED
          TIME INCREMENT MAY NOW INCREASE TO     6.00    
          TIME INCREMENT REDUCED TO   0.102     TO MEET NEXT OUTPUT TIME POINT

 ITERATION SUMMARY FOR THE INCREMENT:   2 TOTAL ITERATIONS, OF WHICH
   0 ARE SEVERE DISCONTINUITY ITERATIONS AND  2 ARE EQUILIBRIUM ITERATIONS.

 TIME INCREMENT COMPLETED  0.102    ,  FRACTION OF STEP COMPLETED  0.475    
 STEP TIME COMPLETED        2.85    ,  TOTAL TIME COMPLETED         2.85    


  INCREMENT    29 STARTS. ATTEMPT NUMBER  1, TIME INCREMENT  0.102    

  NUMBER OF EQUATIONS =       60     NUMBER OF FLOATING PT. OPERATIONS =  7.38E+04

     CHECK POINT   START OF SOLVER    

     CHECK POINT  END OF SOLVER       

       ELAPSED USER TIME (SEC)      =  1.00000E-02
       ELAPSED SYSTEM TIME (SEC)    =   0.0000    
       ELAPSED TOTAL CPU TIME (SEC) =  1.00000E-02
       ELAPSED WALLCLOCK TIME (SEC) =          0

               CONVERGENCE CHECKS FOR EQUILIBRIUM ITERATION     1


 AVERAGE FORCE                      0.436       TIME AVG. FORCE       0.362    
 LARGEST RESIDUAL FORCE             9.571E-04   AT NODE         18   DOF  3
   INSTANCE: TEST-SAMPLE-1                                                                   
 LARGEST INCREMENT OF DISP.         3.353E-03   AT NODE          1   DOF  1
   INSTANCE: TEST-SAMPLE-1                                                                   
 LARGEST CORRECTION TO DISP.       -3.787E-03   AT NODE          1   DOF  1
   INSTANCE: TEST-SAMPLE-1                                                                   
          DISP.    CORRECTION TOO LARGE COMPARED TO DISP.    INCREMENT

  NUMBER OF EQUATIONS =       60     NUMBER OF FLOATING PT. OPERATIONS =  7.38E+04

     CHECK POINT   START OF SOLVER    

     CHECK POINT  END OF SOLVER       

       ELAPSED USER TIME (SEC)      =   0.0000    
       ELAPSED SYSTEM TIME (SEC)    =   0.0000    
       ELAPSED TOTAL CPU TIME (SEC) =   0.0000    
       ELAPSED WALLCLOCK TIME (SEC) =          0

               CONVERGENCE CHECKS FOR EQUILIBRIUM ITERATION     2


 AVERAGE FORCE                       1.31       TIME AVG. FORCE       0.392    
 LARGEST RESIDUAL FORCE             4.335E-07   AT NODE         12   DOF  3
   INSTANCE: TEST-SAMPLE-1                                                                   
 LARGEST INCREMENT OF DISP.         3.353E-03   AT NODE          1   DOF  1
   INSTANCE: TEST-SAMPLE-1                                                                   
 LARGEST CORRECTION TO DISP.        1.739E-05   AT NODE          3   DOF  2
   INSTANCE: TEST-SAMPLE-1                                                                   
          THE FORCE     EQUILIBRIUM EQUATIONS HAVE CONVERGED
          TIME INCREMENT MAY NOW INCREASE TO     6.00    
          TIME INCREMENT REDUCED TO   0.102     TO MEET NEXT OUTPUT TIME POINT

 ITERATION SUMMARY FOR THE INCREMENT:   2 TOTAL ITERATIONS, OF WHICH
   0 ARE SEVERE DISCONTINUITY ITERATIONS AND  2 ARE EQUILIBRIUM ITERATIONS.

 TIME INCREMENT COMPLETED  0.102    ,  FRACTION OF STEP COMPLETED  0.492    
 STEP TIME COMPLETED        2.95    ,  TOTAL TIME COMPLETED         2.95    


  INCREMENT    30 STARTS. ATTEMPT NUMBER  1, TIME INCREMENT  0.102    

  NUMBER OF EQUATIONS =       60     NUMBER OF FLOATING PT. OPERATIONS =  7.38E+04

     CHECK POINT   START OF SOLVER    

     CHECK POINT  END OF SOLVER       

       ELAPSED USER TIME (SEC)      =   0.0000    
       ELAPSED SYSTEM TIME (SEC)    =   0.0000    
       ELAPSED TOTAL CPU TIME (SEC) =   0.0000    
       ELAPSED WALLCLOCK TIME (SEC) =          0

               CONVERGENCE CHECKS FOR EQUILIBRIUM ITERATION     1


 AVERAGE FORCE                       1.37       TIME AVG. FORCE       0.425    
 LARGEST RESIDUAL FORCE             1.563E-06   AT NODE         20   DOF  2
   INSTANCE: TEST-SAMPLE-1                                                                   
 LARGEST INCREMENT OF DISP.         3.300E-03   AT NODE          1   DOF  1
   INSTANCE: TEST-SAMPLE-1                                                                   
 LARGEST CORRECTION TO DISP.       -5.232E-05   AT NODE          1   DOF  1
   INSTANCE: TEST-SAMPLE-1                                                                   
 ESTIMATE OF DISP.    CORRECTION   -7.067E-08
 FORCE     EQUILIB. ACCEPTED BASED ON SMALL RESIDUAL AND ESTIMATED CORRECTION
          TIME INCREMENT MAY NOW INCREASE TO     6.00    
          TIME INCREMENT REDUCED TO   0.102     TO MEET NEXT OUTPUT TIME POINT

 ITERATION SUMMARY FOR THE INCREMENT:   1 TOTAL ITERATIONS, OF WHICH
   0 ARE SEVERE DISCONTINUITY ITERATIONS AND  1 ARE EQUILIBRIUM ITERATIONS.

 TIME INCREMENT COMPLETED  0.102    ,  FRACTION OF STEP COMPLETED  0.508    
 STEP TIME COMPLETED        3.05    ,  TOTAL TIME COMPLETED         3.05    


  INCREMENT    31 STARTS. ATTEMPT NUMBER  1, TIME INCREMENT  0.102    

  NUMBER OF EQUATIONS =       60     NUMBER OF FLOATING PT. OPERATIONS =  7.38E+04

     CHECK POINT   START OF SOLVER    

     CHECK POINT  END OF SOLVER       

       ELAPSED USER TIME (SEC)      =  1.00000E-02
       ELAPSED SYSTEM TIME (SEC)    =   0.0000    
       ELAPSED TOTAL CPU TIME (SEC) =  1.00000E-02
       ELAPSED WALLCLOCK TIME (SEC) =          0

               CONVERGENCE CHECKS FOR EQUILIBRIUM ITERATION     1


 AVERAGE FORCE                      0.507       TIME AVG. FORCE       0.427    
 LARGEST RESIDUAL FORCE             6.613E-04   AT NODE         18   DOF  2
   INSTANCE: TEST-SAMPLE-1                                                                   
 LARGEST INCREMENT OF DISP.         7.234E-03   AT NODE          1   DOF  1
   INSTANCE: TEST-SAMPLE-1                                                                   
 LARGEST CORRECTION TO DISP.        3.934E-03   AT NODE          1   DOF  1
   INSTANCE: TEST-SAMPLE-1                                                                   
          DISP.    CORRECTION TOO LARGE COMPARED TO DISP.    INCREMENT

  NUMBER OF EQUATIONS =       60     NUMBER OF FLOATING PT. OPERATIONS =  7.38E+04

     CHECK POINT   START OF SOLVER    

     CHECK POINT  END OF SOLVER       

       ELAPSED USER TIME (SEC)      =   0.0000    
       ELAPSED SYSTEM TIME (SEC)    =   0.0000    
       ELAPSED TOTAL CPU TIME (SEC) =   0.0000    
       ELAPSED WALLCLOCK TIME (SEC) =          0

               CONVERGENCE CHECKS FOR EQUILIBRIUM ITERATION     2


 AVERAGE FORCE                       1.52       TIME AVG. FORCE       0.460    
 LARGEST RESIDUAL FORCE             1.821E-07   AT NODE         20   DOF  2
   INSTANCE: TEST-SAMPLE-1                                                                   
 LARGEST INCREMENT OF DISP.         7.234E-03   AT NODE          1   DOF  1
   INSTANCE: TEST-SAMPLE-1                                                                   
 LARGEST CORRECTION TO DISP.        1.043E-05   AT NODE          6   DOF  3
   INSTANCE: TEST-SAMPLE-1                                                                   
          THE FORCE     EQUILIBRIUM EQUATIONS HAVE CONVERGED
          TIME INCREMENT MAY NOW INCREASE TO     6.00    
          TIME INCREMENT REDUCED TO   0.102     TO MEET NEXT OUTPUT TIME POINT

 ITERATION SUMMARY FOR THE INCREMENT:   2 TOTAL ITERATIONS, OF WHICH
   0 ARE SEVERE DISCONTINUITY ITERATIONS AND  2 ARE EQUILIBRIUM ITERATIONS.

 TIME INCREMENT COMPLETED  0.102    ,  FRACTION OF STEP COMPLETED  0.525    
 STEP TIME COMPLETED        3.15    ,  TOTAL TIME COMPLETED         3.15    


  INCREMENT    32 STARTS. ATTEMPT NUMBER  1, TIME INCREMENT  0.102    

  NUMBER OF EQUATIONS =       60     NUMBER OF FLOATING PT. OPERATIONS =  7.38E+04

     CHECK POINT   START OF SOLVER    

     CHECK POINT  END OF SOLVER       

       ELAPSED USER TIME (SEC)      =   0.0000    
       ELAPSED SYSTEM TIME (SEC)    =   0.0000    
       ELAPSED TOTAL CPU TIME (SEC) =   0.0000    
       ELAPSED WALLCLOCK TIME (SEC) =          0

               CONVERGENCE CHECKS FOR EQUILIBRIUM ITERATION     1


 AVERAGE FORCE                      0.538       TIME AVG. FORCE       0.463    
 LARGEST RESIDUAL FORCE             5.512E-04   AT NODE         13   DOF  3
   INSTANCE: TEST-SAMPLE-1                                                                   
 LARGEST INCREMENT OF DISP.         4.227E-03   AT NODE          1   DOF  1
   INSTANCE: TEST-SAMPLE-1                                                                   
 LARGEST CORRECTION TO DISP.       -3.007E-03   AT NODE          1   DOF  1
   INSTANCE: TEST-SAMPLE-1                                                                   
          DISP.    CORRECTION TOO LARGE COMPARED TO DISP.    INCREMENT

  NUMBER OF EQUATIONS =       60     NUMBER OF FLOATING PT. OPERATIONS =  7.38E+04

     CHECK POINT   START OF SOLVER    

     CHECK POINT  END OF SOLVER       

       ELAPSED USER TIME (SEC)      =   0.0000    
       ELAPSED SYSTEM TIME (SEC)    =   0.0000    
       ELAPSED TOTAL CPU TIME (SEC) =   0.0000    
       ELAPSED WALLCLOCK TIME (SEC) =          0

               CONVERGENCE CHECKS FOR EQUILIBRIUM ITERATION     2


 AVERAGE FORCE                       1.61       TIME AVG. FORCE       0.496    
 LARGEST RESIDUAL FORCE             1.203E-07   AT NODE         17   DOF  3
   INSTANCE: TEST-SAMPLE-1                                                                   
 LARGEST INCREMENT OF DISP.         4.227E-03   AT NODE          1   DOF  1
   INSTANCE: TEST-SAMPLE-1                                                                   
 LARGEST CORRECTION TO DISP.        8.228E-06   AT NODE          2   DOF  3
   INSTANCE: TEST-SAMPLE-1                                                                   
          THE FORCE     EQUILIBRIUM EQUATIONS HAVE CONVERGED
          TIME INCREMENT MAY NOW INCREASE TO     6.00    
          TIME INCREMENT REDUCED TO   0.102     TO MEET NEXT OUTPUT TIME POINT

 ITERATION SUMMARY FOR THE INCREMENT:   2 TOTAL ITERATIONS, OF WHICH
   0 ARE SEVERE DISCONTINUITY ITERATIONS AND  2 ARE EQUILIBRIUM ITERATIONS.

 TIME INCREMENT COMPLETED  0.102    ,  FRACTION OF STEP COMPLETED  0.542    
 STEP TIME COMPLETED        3.25    ,  TOTAL TIME COMPLETED         3.25    


  INCREMENT    33 STARTS. ATTEMPT NUMBER  1, TIME INCREMENT  0.102    

  NUMBER OF EQUATIONS =       60     NUMBER OF FLOATING PT. OPERATIONS =  7.38E+04

     CHECK POINT   START OF SOLVER    

     CHECK POINT  END OF SOLVER       

       ELAPSED USER TIME (SEC)      =   0.0000    
       ELAPSED SYSTEM TIME (SEC)    =   0.0000    
       ELAPSED TOTAL CPU TIME (SEC) =   0.0000    
       ELAPSED WALLCLOCK TIME (SEC) =          0

               CONVERGENCE CHECKS FOR EQUILIBRIUM ITERATION     1


 AVERAGE FORCE                      0.556       TIME AVG. FORCE       0.498    
 LARGEST RESIDUAL FORCE             1.579E-04   AT NODE         16   DOF  2
   INSTANCE: TEST-SAMPLE-1                                                                   
 LARGEST INCREMENT OF DISP.         2.460E-03   AT NODE          1   DOF  1
   INSTANCE: TEST-SAMPLE-1                                                                   
 LARGEST CORRECTION TO DISP.       -1.767E-03   AT NODE          1   DOF  1
   INSTANCE: TEST-SAMPLE-1                                                                   
          DISP.    CORRECTION TOO LARGE COMPARED TO DISP.    INCREMENT

  NUMBER OF EQUATIONS =       60     NUMBER OF FLOATING PT. OPERATIONS =  7.38E+04

     CHECK POINT   START OF SOLVER    

     CHECK POINT  END OF SOLVER       

       ELAPSED USER TIME (SEC)      =   0.0000    
       ELAPSED SYSTEM TIME (SEC)    =   0.0000    
       ELAPSED TOTAL CPU TIME (SEC) =   0.0000    
       ELAPSED WALLCLOCK TIME (SEC) =          0

               CONVERGENCE CHECKS FOR EQUILIBRIUM ITERATION     2


 AVERAGE FORCE                       1.67       TIME AVG. FORCE       0.532    
 LARGEST RESIDUAL FORCE             9.596E-09   AT NODE         18   DOF  2
   INSTANCE: TEST-SAMPLE-1                                                                   
 LARGEST INCREMENT OF DISP.         2.460E-03   AT NODE          1   DOF  1
   INSTANCE: TEST-SAMPLE-1                                                                   
 LARGEST CORRECTION TO DISP.        2.286E-06   AT NODE          1   DOF  3
   INSTANCE: TEST-SAMPLE-1                                                                   
          THE FORCE     EQUILIBRIUM EQUATIONS HAVE CONVERGED
          TIME INCREMENT MAY NOW INCREASE TO     6.00    
          TIME INCREMENT REDUCED TO   0.102     TO MEET NEXT OUTPUT TIME POINT

 ITERATION SUMMARY FOR THE INCREMENT:   2 TOTAL ITERATIONS, OF WHICH
   0 ARE SEVERE DISCONTINUITY ITERATIONS AND  2 ARE EQUILIBRIUM ITERATIONS.

 TIME INCREMENT COMPLETED  0.102    ,  FRACTION OF STEP COMPLETED  0.559    
 STEP TIME COMPLETED        3.36    ,  TOTAL TIME COMPLETED         3.36    


  INCREMENT    34 STARTS. ATTEMPT NUMBER  1, TIME INCREMENT  0.102    

  NUMBER OF EQUATIONS =       60     NUMBER OF FLOATING PT. OPERATIONS =  7.38E+04

     CHECK POINT   START OF SOLVER    

     CHECK POINT  END OF SOLVER       

       ELAPSED USER TIME (SEC)      =  1.00000E-02
       ELAPSED SYSTEM TIME (SEC)    =   0.0000    
       ELAPSED TOTAL CPU TIME (SEC) =  1.00000E-02
       ELAPSED WALLCLOCK TIME (SEC) =          0

               CONVERGENCE CHECKS FOR EQUILIBRIUM ITERATION     1


 AVERAGE FORCE                       1.71       TIME AVG. FORCE       0.566    
 LARGEST RESIDUAL FORCE             8.236E-06   AT NODE         18   DOF  3
   INSTANCE: TEST-SAMPLE-1                                                                   
 LARGEST INCREMENT OF DISP.         2.078E-03   AT NODE          1   DOF  1
   INSTANCE: TEST-SAMPLE-1                                                                   
 LARGEST CORRECTION TO DISP.       -3.821E-04   AT NODE          1   DOF  1
   INSTANCE: TEST-SAMPLE-1                                                                   
 ESTIMATE OF DISP.    CORRECTION   -6.220E-06
 FORCE     EQUILIB. ACCEPTED BASED ON SMALL RESIDUAL AND ESTIMATED CORRECTION
          TIME INCREMENT MAY NOW INCREASE TO     6.00    
          TIME INCREMENT REDUCED TO   0.102     TO MEET NEXT OUTPUT TIME POINT

 ITERATION SUMMARY FOR THE INCREMENT:   1 TOTAL ITERATIONS, OF WHICH
   0 ARE SEVERE DISCONTINUITY ITERATIONS AND  1 ARE EQUILIBRIUM ITERATIONS.

 TIME INCREMENT COMPLETED  0.102    ,  FRACTION OF STEP COMPLETED  0.576    
 STEP TIME COMPLETED        3.46    ,  TOTAL TIME COMPLETED         3.46    


  INCREMENT    35 STARTS. ATTEMPT NUMBER  1, TIME INCREMENT  0.102    

  NUMBER OF EQUATIONS =       60     NUMBER OF FLOATING PT. OPERATIONS =  7.38E+04

     CHECK POINT   START OF SOLVER    

     CHECK POINT  END OF SOLVER       

       ELAPSED USER TIME (SEC)      =   0.0000    
       ELAPSED SYSTEM TIME (SEC)    =   0.0000    
       ELAPSED TOTAL CPU TIME (SEC) =   0.0000    
       ELAPSED WALLCLOCK TIME (SEC) =          0

               CONVERGENCE CHECKS FOR EQUILIBRIUM ITERATION     1


 AVERAGE FORCE                      0.628       TIME AVG. FORCE       0.568    
 LARGEST RESIDUAL FORCE             1.012E-03   AT NODE          9   DOF  2
   INSTANCE: TEST-SAMPLE-1                                                                   
 LARGEST INCREMENT OF DISP.         7.198E-03   AT NODE          1   DOF  1
   INSTANCE: TEST-SAMPLE-1                                                                   
 LARGEST CORRECTION TO DISP.        5.120E-03   AT NODE          1   DOF  1
   INSTANCE: TEST-SAMPLE-1                                                                   
          DISP.    CORRECTION TOO LARGE COMPARED TO DISP.    INCREMENT

  NUMBER OF EQUATIONS =       60     NUMBER OF FLOATING PT. OPERATIONS =  7.38E+04

     CHECK POINT   START OF SOLVER    

     CHECK POINT  END OF SOLVER       

       ELAPSED USER TIME (SEC)      =   0.0000    
       ELAPSED SYSTEM TIME (SEC)    =   0.0000    
       ELAPSED TOTAL CPU TIME (SEC) =   0.0000    
       ELAPSED WALLCLOCK TIME (SEC) =          0

               CONVERGENCE CHECKS FOR EQUILIBRIUM ITERATION     2


 AVERAGE FORCE                       1.88       TIME AVG. FORCE       0.604    
 LARGEST RESIDUAL FORCE             3.535E-07   AT NODE         20   DOF  2
   INSTANCE: TEST-SAMPLE-1                                                                   
 LARGEST INCREMENT OF DISP.         7.198E-03   AT NODE          1   DOF  1
   INSTANCE: TEST-SAMPLE-1                                                                   
 LARGEST CORRECTION TO DISP.        1.306E-05   AT NODE          5   DOF  3
   INSTANCE: TEST-SAMPLE-1                                                                   
          THE FORCE     EQUILIBRIUM EQUATIONS HAVE CONVERGED
          TIME INCREMENT MAY NOW INCREASE TO     6.00    
          TIME INCREMENT REDUCED TO   0.102     TO MEET NEXT OUTPUT TIME POINT

 ITERATION SUMMARY FOR THE INCREMENT:   2 TOTAL ITERATIONS, OF WHICH
   0 ARE SEVERE DISCONTINUITY ITERATIONS AND  2 ARE EQUILIBRIUM ITERATIONS.

 TIME INCREMENT COMPLETED  0.102    ,  FRACTION OF STEP COMPLETED  0.593    
[...]

     CHECK POINT   START OF SOLVER    

     CHECK POINT  END OF SOLVER       

       ELAPSED USER TIME (SEC)      =   0.0000    
       ELAPSED SYSTEM TIME (SEC)    =   0.0000    
       ELAPSED TOTAL CPU TIME (SEC) =   0.0000    
       ELAPSED WALLCLOCK TIME (SEC) =          0

               CONVERGENCE CHECKS FOR EQUILIBRIUM ITERATION     1


 AVERAGE FORCE                       3.80       TIME AVG. FORCE        1.29    
 LARGEST RESIDUAL FORCE             5.474E-06   AT NODE         18   DOF  2
   INSTANCE: TEST-SAMPLE-1                                                                   
 LARGEST INCREMENT OF DISP.         3.816E-03   AT NODE          1   DOF  1
   INSTANCE: TEST-SAMPLE-1                                                                   
 LARGEST CORRECTION TO DISP.        7.258E-04   AT NODE          1   DOF  1
   INSTANCE: TEST-SAMPLE-1                                                                   
 ESTIMATE OF DISP.    CORRECTION    1.304E-05
 FORCE     EQUILIB. ACCEPTED BASED ON SMALL RESIDUAL AND ESTIMATED CORRECTION
          TIME INCREMENT MAY NOW INCREASE TO     6.00    
          TIME INCREMENT REDUCED TO   0.102     TO MEET NEXT OUTPUT TIME POINT

 ITERATION SUMMARY FOR THE INCREMENT:   1 TOTAL ITERATIONS, OF WHICH
   0 ARE SEVERE DISCONTINUITY ITERATIONS AND  1 ARE EQUILIBRIUM ITERATIONS.

 TIME INCREMENT COMPLETED  0.102    ,  FRACTION OF STEP COMPLETED  0.864    
 STEP TIME COMPLETED        5.19    ,  TOTAL TIME COMPLETED         5.19    


  INCREMENT    52 STARTS. ATTEMPT NUMBER  1, TIME INCREMENT  0.102    

  NUMBER OF EQUATIONS =       60     NUMBER OF FLOATING PT. OPERATIONS =  7.38E+04

     CHECK POINT   START OF SOLVER    

     CHECK POINT  END OF SOLVER       

       ELAPSED USER TIME (SEC)      =   0.0000    
       ELAPSED SYSTEM TIME (SEC)    =   0.0000    
       ELAPSED TOTAL CPU TIME (SEC) =   0.0000    
       ELAPSED WALLCLOCK TIME (SEC) =          0

               CONVERGENCE CHECKS FOR EQUILIBRIUM ITERATION     1


 AVERAGE FORCE                       3.99       TIME AVG. FORCE        1.35    
 LARGEST RESIDUAL FORCE             8.320E-06   AT NODE         18   DOF  3
   INSTANCE: TEST-SAMPLE-1                                                                   
 LARGEST INCREMENT OF DISP.         4.795E-03   AT NODE          1   DOF  1
   INSTANCE: TEST-SAMPLE-1                                                                   
 LARGEST CORRECTION TO DISP.        9.788E-04   AT NODE          1   DOF  1
   INSTANCE: TEST-SAMPLE-1                                                                   
 ESTIMATE OF DISP.    CORRECTION    1.836E-05
 FORCE     EQUILIB. ACCEPTED BASED ON SMALL RESIDUAL AND ESTIMATED CORRECTION
          TIME INCREMENT MAY NOW INCREASE TO     6.00    
          TIME INCREMENT REDUCED TO   0.102     TO MEET NEXT OUTPUT TIME POINT

 ITERATION SUMMARY FOR THE INCREMENT:   1 TOTAL ITERATIONS, OF WHICH
   0 ARE SEVERE DISCONTINUITY ITERATIONS AND  1 ARE EQUILIBRIUM ITERATIONS.

 TIME INCREMENT COMPLETED  0.102    ,  FRACTION OF STEP COMPLETED  0.881    
 STEP TIME COMPLETED        5.29    ,  TOTAL TIME COMPLETED         5.29    


  INCREMENT    53 STARTS. ATTEMPT NUMBER  1, TIME INCREMENT  0.102    

  NUMBER OF EQUATIONS =       60     NUMBER OF FLOATING PT. OPERATIONS =  7.38E+04

     CHECK POINT   START OF SOLVER    

     CHECK POINT  END OF SOLVER       

       ELAPSED USER TIME (SEC)      =   0.0000    
       ELAPSED SYSTEM TIME (SEC)    =   0.0000    
       ELAPSED TOTAL CPU TIME (SEC) =   0.0000    
       ELAPSED WALLCLOCK TIME (SEC) =          0

               CONVERGENCE CHECKS FOR EQUILIBRIUM ITERATION     1


 AVERAGE FORCE                       4.20       TIME AVG. FORCE        1.40    
 LARGEST RESIDUAL FORCE            -7.386E-07   AT NODE          9   DOF  2
   INSTANCE: TEST-SAMPLE-1                                                                   
 LARGEST INCREMENT OF DISP.         5.080E-03   AT NODE          1   DOF  1
   INSTANCE: TEST-SAMPLE-1                                                                   
 LARGEST CORRECTION TO DISP.        2.845E-04   AT NODE          1   DOF  1
   INSTANCE: TEST-SAMPLE-1                                                                   
 ESTIMATE OF DISP.    CORRECTION   -3.343E-07
 FORCE     EQUILIB. ACCEPTED BASED ON SMALL RESIDUAL AND ESTIMATED CORRECTION
          TIME INCREMENT MAY NOW INCREASE TO     6.00    
          TIME INCREMENT REDUCED TO   0.102     TO MEET NEXT OUTPUT TIME POINT

 ITERATION SUMMARY FOR THE INCREMENT:   1 TOTAL ITERATIONS, OF WHICH
   0 ARE SEVERE DISCONTINUITY ITERATIONS AND  1 ARE EQUILIBRIUM ITERATIONS.

 TIME INCREMENT COMPLETED  0.102    ,  FRACTION OF STEP COMPLETED  0.898    
 STEP TIME COMPLETED        5.39    ,  TOTAL TIME COMPLETED         5.39    


  INCREMENT    54 STARTS. ATTEMPT NUMBER  1, TIME INCREMENT  0.102    

  NUMBER OF EQUATIONS =       60     NUMBER OF FLOATING PT. OPERATIONS =  7.38E+04

     CHECK POINT   START OF SOLVER    

     CHECK POINT  END OF SOLVER       

       ELAPSED USER TIME (SEC)      =   0.0000    
       ELAPSED SYSTEM TIME (SEC)    =   0.0000    
       ELAPSED TOTAL CPU TIME (SEC) =   0.0000    
       ELAPSED WALLCLOCK TIME (SEC) =          0

               CONVERGENCE CHECKS FOR EQUILIBRIUM ITERATION     1


 AVERAGE FORCE                       4.37       TIME AVG. FORCE        1.45    
 LARGEST RESIDUAL FORCE             1.667E-05   AT NODE         17   DOF  3
   INSTANCE: TEST-SAMPLE-1                                                                   
 LARGEST INCREMENT OF DISP.         4.032E-03   AT NODE          1   DOF  1
   INSTANCE: TEST-SAMPLE-1                                                                   
 LARGEST CORRECTION TO DISP.       -1.047E-03   AT NODE          1   DOF  1
   INSTANCE: TEST-SAMPLE-1                                                                   
 ESTIMATE OF DISP.    CORRECTION   -2.910E-05
 FORCE     EQUILIB. ACCEPTED BASED ON SMALL RESIDUAL AND ESTIMATED CORRECTION
          TIME INCREMENT MAY NOW INCREASE TO     6.00    
          TIME INCREMENT REDUCED TO   0.102     TO MEET NEXT OUTPUT TIME POINT

 ITERATION SUMMARY FOR THE INCREMENT:   1 TOTAL ITERATIONS, OF WHICH
   0 ARE SEVERE DISCONTINUITY ITERATIONS AND  1 ARE EQUILIBRIUM ITERATIONS.

 TIME INCREMENT COMPLETED  0.102    ,  FRACTION OF STEP COMPLETED  0.915    
 STEP TIME COMPLETED        5.49    ,  TOTAL TIME COMPLETED         5.49    


  INCREMENT    55 STARTS. ATTEMPT NUMBER  1, TIME INCREMENT  0.102    

  NUMBER OF EQUATIONS =       60     NUMBER OF FLOATING PT. OPERATIONS =  7.38E+04

     CHECK POINT   START OF SOLVER    

     CHECK POINT  END OF SOLVER       

       ELAPSED USER TIME (SEC)      =  1.00000E-02
       ELAPSED SYSTEM TIME (SEC)    =   0.0000    
       ELAPSED TOTAL CPU TIME (SEC) =  1.00000E-02
       ELAPSED WALLCLOCK TIME (SEC) =          0

               CONVERGENCE CHECKS FOR EQUILIBRIUM ITERATION     1


 AVERAGE FORCE                       4.51       TIME AVG. FORCE        1.51    
 LARGEST RESIDUAL FORCE             7.254E-06   AT NODE         18   DOF  3
   INSTANCE: TEST-SAMPLE-1                                                                   
 LARGEST INCREMENT OF DISP.         3.305E-03   AT NODE          1   DOF  1
   INSTANCE: TEST-SAMPLE-1                                                                   
 LARGEST CORRECTION TO DISP.       -7.267E-04   AT NODE          1   DOF  1
   INSTANCE: TEST-SAMPLE-1                                                                   
 ESTIMATE OF DISP.    CORRECTION   -1.406E-05
 FORCE     EQUILIB. ACCEPTED BASED ON SMALL RESIDUAL AND ESTIMATED CORRECTION
          TIME INCREMENT MAY NOW INCREASE TO     6.00    
          TIME INCREMENT REDUCED TO   0.102     TO MEET NEXT OUTPUT TIME POINT

 ITERATION SUMMARY FOR THE INCREMENT:   1 TOTAL ITERATIONS, OF WHICH
   0 ARE SEVERE DISCONTINUITY ITERATIONS AND  1 ARE EQUILIBRIUM ITERATIONS.

 TIME INCREMENT COMPLETED  0.102    ,  FRACTION OF STEP COMPLETED  0.932    
 STEP TIME COMPLETED        5.59    ,  TOTAL TIME COMPLETED         5.59    


  INCREMENT    56 STARTS. ATTEMPT NUMBER  1, TIME INCREMENT  0.102    

  NUMBER OF EQUATIONS =       60     NUMBER OF FLOATING PT. OPERATIONS =  7.38E+04

     CHECK POINT   START OF SOLVER    

     CHECK POINT  END OF SOLVER       

       ELAPSED USER TIME (SEC)      =   0.0000    
       ELAPSED SYSTEM TIME (SEC)    =   0.0000    
       ELAPSED TOTAL CPU TIME (SEC) =   0.0000    
       ELAPSED WALLCLOCK TIME (SEC) =          0

               CONVERGENCE CHECKS FOR EQUILIBRIUM ITERATION     1


 AVERAGE FORCE                       1.61       TIME AVG. FORCE        1.51    
 LARGEST RESIDUAL FORCE             1.024E-04   AT NODE         20   DOF  2
   INSTANCE: TEST-SAMPLE-1                                                                   
 LARGEST INCREMENT OF DISP.         7.036E-03   AT NODE          1   DOF  1
   INSTANCE: TEST-SAMPLE-1                                                                   
 LARGEST CORRECTION TO DISP.        3.730E-03   AT NODE          1   DOF  1
   INSTANCE: TEST-SAMPLE-1                                                                   
          DISP.    CORRECTION TOO LARGE COMPARED TO DISP.    INCREMENT

  NUMBER OF EQUATIONS =       60     NUMBER OF FLOATING PT. OPERATIONS =  7.38E+04

     CHECK POINT   START OF SOLVER    

     CHECK POINT  END OF SOLVER       

       ELAPSED USER TIME (SEC)      =   0.0000    
       ELAPSED SYSTEM TIME (SEC)    =   0.0000    
       ELAPSED TOTAL CPU TIME (SEC) =   0.0000    
       ELAPSED WALLCLOCK TIME (SEC) =          0

               CONVERGENCE CHECKS FOR EQUILIBRIUM ITERATION     2


 AVERAGE FORCE                       4.84       TIME AVG. FORCE        1.57    
 LARGEST RESIDUAL FORCE             1.459E-09   AT NODE         12   DOF  3
   INSTANCE: TEST-SAMPLE-1                                                                   
 LARGEST INCREMENT OF DISP.         7.036E-03   AT NODE          1   DOF  1
   INSTANCE: TEST-SAMPLE-1                                                                   
 LARGEST CORRECTION TO DISP.        5.372E-07   AT NODE          7   DOF  2
   INSTANCE: TEST-SAMPLE-1                                                                   
          THE FORCE     EQUILIBRIUM EQUATIONS HAVE CONVERGED
          TIME INCREMENT MAY NOW INCREASE TO     6.00    
          TIME INCREMENT REDUCED TO   0.102     TO MEET NEXT OUTPUT TIME POINT

 ITERATION SUMMARY FOR THE INCREMENT:   2 TOTAL ITERATIONS, OF WHICH
   0 ARE SEVERE DISCONTINUITY ITERATIONS AND  2 ARE EQUILIBRIUM ITERATIONS.

 TIME INCREMENT COMPLETED  0.102    ,  FRACTION OF STEP COMPLETED  0.949    
 STEP TIME COMPLETED        5.69    ,  TOTAL TIME COMPLETED         5.69    


  INCREMENT    57 STARTS. ATTEMPT NUMBER  1, TIME INCREMENT  0.102    

  NUMBER OF EQUATIONS =       60     NUMBER OF FLOATING PT. OPERATIONS =  7.38E+04

     CHECK POINT   START OF SOLVER    

     CHECK POINT  END OF SOLVER       

       ELAPSED USER TIME (SEC)      =  1.00000E-02
       ELAPSED SYSTEM TIME (SEC)    =   0.0000    
       ELAPSED TOTAL CPU TIME (SEC) =  1.00000E-02
       ELAPSED WALLCLOCK TIME (SEC) =          0

               CONVERGENCE CHECKS FOR EQUILIBRIUM ITERATION     1


 AVERAGE FORCE                       1.58       TIME AVG. FORCE        1.57    
 LARGEST RESIDUAL FORCE             4.961E-04   AT NODE         18   DOF  2
   INSTANCE: TEST-SAMPLE-1                                                                   
 LARGEST INCREMENT OF DISP.        -1.928E-03   AT NODE          1   DOF  1
   INSTANCE: TEST-SAMPLE-1                                                                   
 LARGEST CORRECTION TO DISP.       -8.964E-03   AT NODE          1   DOF  1
   INSTANCE: TEST-SAMPLE-1                                                                   
          DISP.    CORRECTION TOO LARGE COMPARED TO DISP.    INCREMENT

  NUMBER OF EQUATIONS =       60     NUMBER OF FLOATING PT. OPERATIONS =  7.38E+04

     CHECK POINT   START OF SOLVER    

     CHECK POINT  END OF SOLVER       

       ELAPSED USER TIME (SEC)      =   0.0000    
       ELAPSED SYSTEM TIME (SEC)    =   0.0000    
       ELAPSED TOTAL CPU TIME (SEC) =   0.0000    
       ELAPSED WALLCLOCK TIME (SEC) =          0

               CONVERGENCE CHECKS FOR EQUILIBRIUM ITERATION     2


 AVERAGE FORCE                       4.75       TIME AVG. FORCE        1.63    
 LARGEST RESIDUAL FORCE             3.490E-08   AT NODE         17   DOF  3
   INSTANCE: TEST-SAMPLE-1                                                                   
 LARGEST INCREMENT OF DISP.        -1.928E-03   AT NODE          1   DOF  1
   INSTANCE: TEST-SAMPLE-1                                                                   
 LARGEST CORRECTION TO DISP.        2.650E-06   AT NODE          3   DOF  2
   INSTANCE: TEST-SAMPLE-1                                                                   
          THE FORCE     EQUILIBRIUM EQUATIONS HAVE CONVERGED
          TIME INCREMENT MAY NOW INCREASE TO     6.00    
          TIME INCREMENT REDUCED TO   0.102     TO MEET NEXT OUTPUT TIME POINT

 ITERATION SUMMARY FOR THE INCREMENT:   2 TOTAL ITERATIONS, OF WHICH
   0 ARE SEVERE DISCONTINUITY ITERATIONS AND  2 ARE EQUILIBRIUM ITERATIONS.

 TIME INCREMENT COMPLETED  0.102    ,  FRACTION OF STEP COMPLETED  0.966    
 STEP TIME COMPLETED        5.80    ,  TOTAL TIME COMPLETED         5.80    


  INCREMENT    58 STARTS. ATTEMPT NUMBER  1, TIME INCREMENT  0.102    

  NUMBER OF EQUATIONS =       60     NUMBER OF FLOATING PT. OPERATIONS =  7.38E+04

     CHECK POINT   START OF SOLVER    

     CHECK POINT  END OF SOLVER       

       ELAPSED USER TIME (SEC)      =   0.0000    
       ELAPSED SYSTEM TIME (SEC)    =   0.0000    
       ELAPSED TOTAL CPU TIME (SEC) =   0.0000    
       ELAPSED WALLCLOCK TIME (SEC) =          0

               CONVERGENCE CHECKS FOR EQUILIBRIUM ITERATION     1


 AVERAGE FORCE                       1.68       TIME AVG. FORCE        1.63    
 LARGEST RESIDUAL FORCE             5.316E-04   AT NODE         18   DOF  3
   INSTANCE: TEST-SAMPLE-1                                                                   
 LARGEST INCREMENT OF DISP.         6.428E-03   AT NODE          1   DOF  1
   INSTANCE: TEST-SAMPLE-1                                                                   
 LARGEST CORRECTION TO DISP.        8.355E-03   AT NODE          1   DOF  1
   INSTANCE: TEST-SAMPLE-1                                                                   
          DISP.    CORRECTION TOO LARGE COMPARED TO DISP.    INCREMENT

  NUMBER OF EQUATIONS =       60     NUMBER OF FLOATING PT. OPERATIONS =  7.38E+04

     CHECK POINT   START OF SOLVER    

     CHECK POINT  END OF SOLVER       

       ELAPSED USER TIME (SEC)      =   0.0000    
       ELAPSED SYSTEM TIME (SEC)    =   0.0000    
       ELAPSED TOTAL CPU TIME (SEC) =   0.0000    
       ELAPSED WALLCLOCK TIME (SEC) =          0

               CONVERGENCE CHECKS FOR EQUILIBRIUM ITERATION     2


 AVERAGE FORCE                       5.05       TIME AVG. FORCE        1.68    
 LARGEST RESIDUAL FORCE             3.764E-08   AT NODE         17   DOF  3
   INSTANCE: TEST-SAMPLE-1                                                                   
 LARGEST INCREMENT OF DISP.         6.428E-03   AT NODE          1   DOF  1
   INSTANCE: TEST-SAMPLE-1                                                                   
 LARGEST CORRECTION TO DISP.        2.675E-06   AT NODE          7   DOF  2
   INSTANCE: TEST-SAMPLE-1                                                                   
          THE FORCE     EQUILIBRIUM EQUATIONS HAVE CONVERGED
          TIME INCREMENT MAY NOW INCREASE TO     6.00    

 ITERATION SUMMARY FOR THE INCREMENT:   2 TOTAL ITERATIONS, OF WHICH
   0 ARE SEVERE DISCONTINUITY ITERATIONS AND  2 ARE EQUILIBRIUM ITERATIONS.

 TIME INCREMENT COMPLETED  0.102    ,  FRACTION OF STEP COMPLETED  0.983    
 STEP TIME COMPLETED        5.90    ,  TOTAL TIME COMPLETED         5.90    


  INCREMENT    59 STARTS. ATTEMPT NUMBER  1, TIME INCREMENT  0.102    

  NUMBER OF EQUATIONS =       60     NUMBER OF FLOATING PT. OPERATIONS =  7.38E+04

     CHECK POINT   START OF SOLVER    

     CHECK POINT  END OF SOLVER       

       ELAPSED USER TIME (SEC)      =   0.0000    
       ELAPSED SYSTEM TIME (SEC)    =   0.0000    
       ELAPSED TOTAL CPU TIME (SEC) =   0.0000    
       ELAPSED WALLCLOCK TIME (SEC) =          0

               CONVERGENCE CHECKS FOR EQUILIBRIUM ITERATION     1


 AVERAGE FORCE                       2.80       TIME AVG. FORCE        1.70    
 LARGEST RESIDUAL FORCE             4.678E-05   AT NODE         20   DOF  2
   INSTANCE: TEST-SAMPLE-1                                                                   
 LARGEST INCREMENT OF DISP.         1.086E-02   AT NODE          1   DOF  1
   INSTANCE: TEST-SAMPLE-1                                                                   
 LARGEST CORRECTION TO DISP.        4.430E-03   AT NODE          1   DOF  1
   INSTANCE: TEST-SAMPLE-1                                                                   
          DISP.    CORRECTION TOO LARGE COMPARED TO DISP.    INCREMENT

  NUMBER OF EQUATIONS =       60     NUMBER OF FLOATING PT. OPERATIONS =  7.38E+04

     CHECK POINT   START OF SOLVER    

     CHECK POINT  END OF SOLVER       

       ELAPSED USER TIME (SEC)      =   0.0000    
       ELAPSED SYSTEM TIME (SEC)    =   0.0000    
       ELAPSED TOTAL CPU TIME (SEC) =   0.0000    
       ELAPSED WALLCLOCK TIME (SEC) =          0

               CONVERGENCE CHECKS FOR EQUILIBRIUM ITERATION     2


 AVERAGE FORCE                       5.61       TIME AVG. FORCE        1.75    
 LARGEST RESIDUAL FORCE             2.624E-10   AT NODE         18   DOF  3
   INSTANCE: TEST-SAMPLE-1                                                                   
 LARGEST INCREMENT OF DISP.         1.086E-02   AT NODE          1   DOF  1
   INSTANCE: TEST-SAMPLE-1                                                                   
 LARGEST CORRECTION TO DISP.        2.130E-07   AT NODE          5   DOF  2
   INSTANCE: TEST-SAMPLE-1                                                                   
          THE FORCE     EQUILIBRIUM EQUATIONS HAVE CONVERGED
          TIME INCREMENT MAY NOW INCREASE TO     6.00    

 ITERATION SUMMARY FOR THE INCREMENT:   2 TOTAL ITERATIONS, OF WHICH
   0 ARE SEVERE DISCONTINUITY ITERATIONS AND  2 ARE EQUILIBRIUM ITERATIONS.

 TIME INCREMENT COMPLETED  0.102    ,  FRACTION OF STEP COMPLETED   1.00    
 STEP TIME COMPLETED        6.00    ,  TOTAL TIME COMPLETED         6.00    


          THE ANALYSIS HAS BEEN COMPLETED



     ANALYSIS SUMMARY:
     TOTAL OF         59  INCREMENTS
                       0  CUTBACKS IN AUTOMATIC INCREMENTATION
                      92  ITERATIONS INCLUDING CONTACT ITERATIONS IF PRESENT
                      92  PASSES THROUGH THE EQUATION SOLVER OF WHICH 
                      92  INVOLVE MATRIX DECOMPOSITION, INCLUDING
                       0  DECOMPOSITION(S) OF THE MASS MATRIX
                       1  REORDERING OF EQUATIONS TO MINIMIZE WAVEFRONT
                       0  ADDITIONAL RESIDUAL EVALUATIONS FOR LINE SEARCHES
                       0  ADDITIONAL OPERATOR EVALUATIONS FOR LINE SEARCHES
                       1  WARNING MESSAGES DURING USER INPUT PROCESSING
                       0  WARNING MESSAGES DURING ANALYSIS
                       0  ANALYSIS WARNINGS ARE NUMERICAL PROBLEM MESSAGES
                       0  ANALYSIS WARNINGS ARE NEGATIVE EIGENVALUE MESSAGES
                       0  ERROR MESSAGES



     JOB TIME SUMMARY
       USER TIME (SEC)      =  0.52000    
       SYSTEM TIME (SEC)    =  0.10000    
       TOTAL CPU TIME (SEC) =  0.62000    
       WALLCLOCK TIME (SEC) =          0
